project/IEEE123Bus/Lines.DSS
!_____________________________________________________________________________________________________________________________________________________
!LINES
!_____________________________________________________________________________________________________________________________________________________

/* DESCRIÇÃO DAS LINHAS:

As linhas de distribuição possuem um valor de impedancia própria e mútua dados por Ro,R1,Xo,X1 que pelo Teo. Fortescue
poderemos formar a matriz de impedancia e consequentemente o cálculo do fluxo de potencia.

-DADOS DAS LINHAS-
__________________________________________________________
CONFIGURAÇÕES DAS LINHAS AEREAS
__________________________________________________________
Config.	Phasing	Phase Cond. 	Neutral Cond. 	Spacing
		ACSR					ACSR			ID

1		ABCN	336,400 26/7	4/0 6/1			500
2		CABN	336,400 26/7	4/0 6/1			500
3		BCAN	336,400 26/7	4/0 6/1			500
4		CBAN	336,400 26/7	4/0 6/1			500
5		BACN	336,400 26/7	4/0 6/1			500
6		ACBN	336,400 26/7	4/0 6/1			500

7		ACN		336,400 26/7	4/0 6/1			505
8		ABN		336,400 26/7	4/0 6/1			505

9		AN		1/0				1/0				510
10		BN 		1/0				1/0				510
11		CN		1/0				1/0				510
__________________________________________________________


__________________________________________________________
CONFIGURAÇÕES DAS LINHAS SUBTERRANEAS			
_______________________________________
Config.	Phasing	Cable		Spacing ID
12		ABC		1/0,AA,CN	515
_______________________________________


OBS : Os comprimentos das linhas estão em mi

*/ 

!___________________________________________________________________
! INICIO SCRIPT

New Line.L115   Phases=3 Bus1=149.1.2.3  Bus2=1.1.2.3      LineCode=1    Length=0.4
														   
New Line.L1     Phases=1 Bus1=1.2        Bus2=2.2          LineCode=10   Length=0.175
New Line.L2     Phases=1 Bus1=1.3        Bus2=3.3          LineCode=11   Length=0.25
New Line.L3     Phases=3 Bus1=1.1.2.3    Bus2=7.1.2.3      LineCode=1    Length=0.3
New Line.L4     Phases=1 Bus1=3.3        Bus2=4.3          LineCode=11   Length=0.2
New Line.L5     Phases=1 Bus1=3.3        Bus2=5.3          LineCode=11   Length=0.325
New Line.L6     Phases=1 Bus1=5.3        Bus2=6.3          LineCode=11   Length=0.25
New Line.L7     Phases=3 Bus1=7.1.2.3    Bus2=8.1.2.3      LineCode=1    Length=0.2
New Line.L8     Phases=1 Bus1=8.2        Bus2=12.2         LineCode=10   Length=0.225
New Line.L9     Phases=1 Bus1=8.1        Bus2=9.1          LineCode=9    Length=0.225
New Line.L10    Phases=3 Bus1=8.1.2.3    Bus2=13.1.2.3     LineCode=1    Length=0.3
New Line.L11    Phases=1 Bus1=9r.1       Bus2=14.1         LineCode=9    Length=0.425
New Line.L12    Phases=1 Bus1=13.3       Bus2=34.3         LineCode=11   Length=0.15
New Line.L13    Phases=3 Bus1=13.1.2.3   Bus2=18.1.2.3     LineCode=2    Length=0.825
New Line.L14    Phases=1 Bus1=14.1       Bus2=11.1         LineCode=9    Length=0.25
New Line.L15    Phases=1 Bus1=14.1       Bus2=10.1         LineCode=9    Length=0.25
New Line.L16    Phases=1 Bus1=15.3       Bus2=16.3         LineCode=11   Length=0.375
New Line.L17    Phases=1 Bus1=15.3       Bus2=17.3         LineCode=11   Length=0.35
New Line.L18    Phases=1 Bus1=18.1       Bus2=19.1         LineCode=9    Length=0.25
New Line.L19    Phases=3 Bus1=18.1.2.3   Bus2=21.1.2.3     LineCode=2    Length=0.3
New Line.L20    Phases=1 Bus1=19.1       Bus2=20.1         LineCode=9    Length=0.325
New Line.L21    Phases=1 Bus1=21.2       Bus2=22.2         LineCode=10   Length=0.525
New Line.L22    Phases=3 Bus1=21.1.2.3   Bus2=23.1.2.3     LineCode=2    Length=0.25
New Line.L23    Phases=1 Bus1=23.3       Bus2=24.3         LineCode=11   Length=0.55
New Line.L24    Phases=3 Bus1=23.1.2.3   Bus2=25.1.2.3     LineCode=2    Length=0.275
New Line.L25    Phases=2 Bus1=25r.1.3    Bus2=26.1.3       LineCode=7    Length=0.35
New Line.L26    Phases=3 Bus1=25.1.2.3   Bus2=28.1.2.3     LineCode=2    Length=0.2
New Line.L27    Phases=2 Bus1=26.1.3     Bus2=27.1.3       LineCode=7    Length=0.275
New Line.L28    Phases=1 Bus1=26.3       Bus2=31.3         LineCode=11   Length=0.225
New Line.L29    Phases=1 Bus1=27.1       Bus2=33.1         LineCode=9    Length=0.5
New Line.L30    Phases=3 Bus1=28.1.2.3   Bus2=29.1.2.3     LineCode=2    Length=0.3
New Line.L31    Phases=3 Bus1=29.1.2.3   Bus2=30.1.2.3     LineCode=2    Length=0.35
New Line.L32    Phases=3 Bus1=30.1.2.3   Bus2=250.1.2.3    LineCode=2    Length=0.2
New Line.L33    Phases=1 Bus1=31.3       Bus2=32.3         LineCode=11   Length=0.3
New Line.L34    Phases=1 Bus1=34.3       Bus2=15.3         LineCode=11   Length=0.1
New Line.L35    Phases=2 Bus1=35.1.2.3   Bus2=36.1.2.3     LineCode=4    Length=0.65
New Line.L36    Phases=3 Bus1=35.1.2.3   Bus2=40.1.2.3     LineCode=1    Length=0.25
New Line.L37    Phases=1 Bus1=36.1       Bus2=37.1         LineCode=9    Length=0.3
New Line.L38    Phases=1 Bus1=36.1.2.3   Bus2=38.1.2.3     LineCode=4    Length=0.25
New Line.L39    Phases=1 Bus1=38.1.2.3   Bus2=39.1.2.3     LineCode=4    Length=0.325
New Line.L40    Phases=1 Bus1=40.3       Bus2=41.3         LineCode=11   Length=0.325
New Line.L41    Phases=3 Bus1=40.1.2.3   Bus2=42.1.2.3     LineCode=1    Length=0.25
New Line.L42    Phases=1 Bus1=42.2       Bus2=43.2         LineCode=10   Length=0.5
New Line.L43    Phases=3 Bus1=42.1.2.3   Bus2=44.1.2.3     LineCode=1    Length=0.2
New Line.L44    Phases=1 Bus1=44.1       Bus2=45.1         LineCode=9    Length=0.2
New Line.L45    Phases=3 Bus1=44.1.2.3   Bus2=47.1.2.3     LineCode=1    Length=0.25
New Line.L46    Phases=1 Bus1=45.1       Bus2=46.1         LineCode=9    Length=0.3
New Line.L47    Phases=3 Bus1=47.1.2.3   Bus2=48.1.2.3     LineCode=4    Length=0.15
New Line.L48    Phases=3 Bus1=47.1.2.3   Bus2=49.1.2.3     LineCode=4    Length=0.25
New Line.L49    Phases=3 Bus1=49.1.2.3   Bus2=50.1.2.3     LineCode=4    Length=0.25
New Line.L50    Phases=3 Bus1=50.1.2.3   Bus2=51.1.2.3     LineCode=4    Length=0.25
New Line.L51    Phases=3 Bus1=51.1.2.3   Bus2=151.1.2.3    LineCode=4    Length=0.5
New Line.L52    Phases=3 Bus1=52.1.2.3   Bus2=53.1.2.3     LineCode=1    Length=0.2
New Line.L53    Phases=3 Bus1=53.1.2.3   Bus2=54.1.2.3     LineCode=1    Length=0.125
New Line.L54    Phases=3 Bus1=54.1.2.3   Bus2=55.1.2.3     LineCode=1    Length=0.275
New Line.L55    Phases=3 Bus1=54.1.2.3   Bus2=57.1.2.3     LineCode=3    Length=0.35
New Line.L56    Phases=3 Bus1=55.1.2.3   Bus2=56.1.2.3     LineCode=1    Length=0.275
New Line.L57    Phases=1 Bus1=57.2       Bus2=58.2         LineCode=10   Length=0.25
New Line.L58    Phases=3 Bus1=57.1.2.3   Bus2=60.1.2.3     LineCode=3    Length=0.75
New Line.L59    Phases=1 Bus1=58.2       Bus2=59.2         LineCode=10   Length=0.25
New Line.L60    Phases=3 Bus1=60.1.2.3   Bus2=61.1.2.3     LineCode=5    Length=0.55
New Line.L61    Phases=3 Bus1=60.1.2.3   Bus2=62.1.2.3     LineCode=12   Length=0.25
New Line.L62    Phases=3 Bus1=62.1.2.3   Bus2=63.1.2.3     LineCode=12   Length=0.175
New Line.L63    Phases=3 Bus1=63.1.2.3   Bus2=64.1.2.3     LineCode=12   Length=0.35
New Line.L64    Phases=3 Bus1=64.1.2.3   Bus2=65.1.2.3     LineCode=12   Length=0.425
New Line.L65    Phases=3 Bus1=65.1.2.3   Bus2=66.1.2.3     LineCode=12   Length=0.325
New Line.L66    Phases=1 Bus1=67.1       Bus2=68.1         LineCode=9    Length=0.2
New Line.L67    Phases=3 Bus1=67.1.2.3   Bus2=72.1.2.3     LineCode=3    Length=0.275
New Line.L68    Phases=3 Bus1=67.1.2.3   Bus2=97.1.2.3     LineCode=3    Length=0.25
New Line.L69    Phases=1 Bus1=68.1       Bus2=69.1         LineCode=9    Length=0.275
New Line.L70    Phases=1 Bus1=69.1       Bus2=70.1         LineCode=9    Length=0.325
New Line.L71    Phases=1 Bus1=70.1       Bus2=71.1         LineCode=9    Length=0.275
New Line.L72    Phases=1 Bus1=72.3       Bus2=73.3         LineCode=11   Length=0.275
New Line.L73    Phases=3 Bus1=72.1.2.3   Bus2=76.1.2.3     LineCode=3    Length=0.2
New Line.L74    Phases=1 Bus1=73.3       Bus2=74.3         LineCode=11   Length=0.35
New Line.L75    Phases=1 Bus1=74.3       Bus2=75.3         LineCode=11   Length=0.4
New Line.L76    Phases=3 Bus1=76.1.2.3   Bus2=77.1.2.3     LineCode=6    Length=0.4
New Line.L77    Phases=3 Bus1=76.1.2.3   Bus2=86.1.2.3     LineCode=3    Length=0.7
New Line.L78    Phases=3 Bus1=77.1.2.3   Bus2=78.1.2.3     LineCode=6    Length=0.1
New Line.L79    Phases=3 Bus1=78.1.2.3   Bus2=79.1.2.3     LineCode=6    Length=0.225
New Line.L80    Phases=3 Bus1=78.1.2.3   Bus2=80.1.2.3     LineCode=6    Length=0.475
New Line.L81    Phases=3 Bus1=80.1.2.3   Bus2=81.1.2.3     LineCode=6    Length=0.175
New Line.L82    Phases=3 Bus1=81.1.2.3   Bus2=82.1.2.3     LineCode=6    Length=0.25
New Line.L83    Phases=1 Bus1=81.3       Bus2=84.3         LineCode=11   Length=0.675
New Line.L84    Phases=3 Bus1=82.1.2.3   Bus2=83.1.2.3     LineCode=6    Length=0.25
New Line.L85    Phases=1 Bus1=84.3       Bus2=85.3         LineCode=11   Length=0.475
New Line.L86    Phases=3 Bus1=86.1.2.3   Bus2=87.1.2.3     LineCode=6    Length=0.45
New Line.L87    Phases=1 Bus1=87.1       Bus2=88.1         LineCode=9    Length=0.175
New Line.L88    Phases=3 Bus1=87.1.2.3   Bus2=89.1.2.3     LineCode=6    Length=0.275
New Line.L89    Phases=1 Bus1=89.2       Bus2=90.2         LineCode=10   Length=0.25
New Line.L90    Phases=3 Bus1=89.1.2.3   Bus2=91.1.2.3     LineCode=6    Length=0.225
New Line.L91    Phases=1 Bus1=91.3       Bus2=92.3         LineCode=11   Length=0.3
New Line.L92    Phases=3 Bus1=91.1.2.3   Bus2=93.1.2.3     LineCode=6    Length=0.225
New Line.L93    Phases=1 Bus1=93.1       Bus2=94.1         LineCode=9    Length=0.275
New Line.L94    Phases=3 Bus1=93.1.2.3   Bus2=95.1.2.3     LineCode=6    Length=0.3
New Line.L95    Phases=1 Bus1=95.2       Bus2=96.2         LineCode=10   Length=0.2
New Line.L96    Phases=3 Bus1=97.1.2.3   Bus2=98.1.2.3     LineCode=3    Length=0.275
New Line.L97    Phases=3 Bus1=98.1.2.3   Bus2=99.1.2.3     LineCode=3    Length=0.55
New Line.L98    Phases=3 Bus1=99.1.2.3   Bus2=100.1.2.3    LineCode=3    Length=0.3
New Line.L99    Phases=3 Bus1=100.1.2.3  Bus2=450.1.2.3    LineCode=3    Length=0.8
New Line.L100   Phases=1 Bus1=101.3      Bus2=102.3        LineCode=11   Length=0.225
New Line.L101   Phases=3 Bus1=101.1.2.3  Bus2=105.1.2.3    LineCode=3    Length=0.275
New Line.L102   Phases=1 Bus1=102.3      Bus2=103.3        LineCode=11   Length=0.325
New Line.L103   Phases=1 Bus1=103.3      Bus2=104.3        LineCode=11   Length=0.7
New Line.L104   Phases=1 Bus1=105.2      Bus2=106.2        LineCode=10   Length=0.225
New Line.L105   Phases=3 Bus1=105.1.2.3  Bus2=108.1.2.3    LineCode=3    Length=0.325
New Line.L106   Phases=1 Bus1=106.2      Bus2=107.2        LineCode=10   Length=0.575
New Line.L107   Phases=1 Bus1=108.1      Bus2=109.1        LineCode=9    Length=0.45
New Line.L108   Phases=3 Bus1=108.1.2.3  Bus2=300.1.2.3    LineCode=3    Length=1
New Line.L109   Phases=1 Bus1=109.1      Bus2=110.1        LineCode=9    Length=0.3
New Line.L110   Phases=1 Bus1=110.1      Bus2=111.1        LineCode=9    Length=0.575
New Line.L111   Phases=1 Bus1=110.1      Bus2=112.1        LineCode=9    Length=0.125
New Line.L112   Phases=1 Bus1=112.1      Bus2=113.1        LineCode=9    Length=0.525
New Line.L113   Phases=1 Bus1=113.1      Bus2=114.1        LineCode=9    Length=0.325
New Line.L114   Phases=3 Bus1=135.1.2.3  Bus2=35.1.2.3     LineCode=4    Length=0.375
New Line.L116   Phases=3 Bus1=152.1.2.3  Bus2=52.1.2.3     LineCode=1    Length=0.4
New Line.L117   Phases=3 Bus1=160r.1.2.3 Bus2=67.1.2.3     LineCode=6    Length=0.35
New Line.L118   Phases=3 Bus1=197.1.2.3  Bus2=101.1.2.3    LineCode=3    Length=0.25
New Line.L119   Phases=1 Bus1=23.1.2.3   Bus2=48sw.1.2.3   LineCode=2    Length=0.516
New Line.L120   Phases=1 Bus1=39.1.2.3   Bus2=66sw.1.2.3   LineCode=4    Length=0.300
New Line.L121   Phases=3 Bus1=36.1.2.3   Bus2=57sw.1.2.3   LineCode=4    Length=0.292
New Line.L122   Phases=3 Bus1=64.1.2.3   Bus2=108sw.1.2.3  LineCode=12   Length=0.619


