project/IEEE123Bus/IEEE123_Curr_Elem.Txt

CIRCUIT ELEMENT CURRENTS

(Currents into element from indicated bus)

Power Delivery Elements

  Bus  Phase    Magnitude, A     Angle      (Real)   +j  (Imag)

ELEMENT = "Vsource.SOURCE"
150        1           654.31 /_  158.2 =    -607.67 +j    242.62
150        2           424.51 /_   40.4 =     323.25 +j    275.17
150        3           521.97 /_  -78.6 =      103.4 +j   -511.62
------------
150        0           654.31 /_  -21.8 =     607.67 +j   -242.62
150        0           424.51 /_ -139.6 =    -323.25 +j   -275.17
150        0           521.97 /_  101.4 =     -103.4 +j    511.62

ELEMENT = "Transformer.REG1A"
150        1           654.31 /_  -21.8 =     607.67 +j   -242.62
150        2           424.51 /_ -139.6 =    -323.25 +j   -275.17
150        3           521.97 /_  101.4 =     -103.4 +j    511.62
150        0           181.13 /_  178.1 =    -181.02 +j    6.1615
------------
150R       1           630.66 /_  158.2 =    -585.71 +j    233.85
150R       2           409.16 /_   40.4 =     311.56 +j    265.22
150R       3            503.1 /_  -78.6 =     99.664 +j   -493.13
150R       0           174.58 /_   -1.9 =     174.48 +j   -5.9388

ELEMENT = "Line.L115"
149        1           630.66 /_  -21.8 =     585.71 +j   -233.85
149        2           409.16 /_ -139.6 =    -311.56 +j   -265.22
149        3            503.1 /_  101.4 =    -99.664 +j    493.13
------------
1          1           630.66 /_  158.2 =    -585.71 +j    233.85
1          2           409.16 /_   40.4 =     311.56 +j    265.22
1          3            503.1 /_  -78.6 =     99.663 +j   -493.13

ELEMENT = "Line.L1"
1          2           8.9964 /_ -146.9 =     -7.535 +j   -4.9153
------------
2          2           8.9966 /_   33.1 =     7.5353 +j    4.9151

ELEMENT = "Line.L2"
1          3            46.57 /_   93.0 =    -2.4384 +j    46.506
------------
3          3            46.57 /_  -87.0 =     2.4379 +j   -46.506

ELEMENT = "Line.L3"
1          1           612.58 /_  -21.6 =     569.55 +j   -225.54
1          2           400.24 /_ -139.4 =    -304.03 +j    -260.3
1          3           457.08 /_  102.3 =    -97.224 +j    446.62
------------
7          1           612.58 /_  158.4 =    -569.55 +j    225.54
7          2           400.24 /_   40.6 =     304.03 +j     260.3
7          3           457.08 /_  -77.7 =     97.223 +j   -446.62

ELEMENT = "Line.L4"
3          3            18.14 /_   93.0 =   -0.95402 +j    18.115
------------
4          3           18.141 /_  -87.0 =    0.95365 +j   -18.116

ELEMENT = "Line.L5"
3          3            28.43 /_   93.0 =    -1.4839 +j    28.391
------------
5          3            28.43 /_  -87.0 =     1.4833 +j   -28.391

ELEMENT = "Line.L6"
5          3           19.113 /_   93.0 =   -0.99595 +j    19.087
------------
6          3           19.113 /_  -87.0 =    0.99549 +j   -19.087

ELEMENT = "Line.L7"
7          1           603.47 /_  -21.5 =     561.43 +j   -221.28
7          2           400.24 /_ -139.4 =    -304.03 +j    -260.3
7          3           457.08 /_  102.3 =    -97.223 +j    446.62
------------
8          1           603.47 /_  158.5 =    -561.43 +j    221.28
8          2           400.24 /_   40.6 =     304.03 +j     260.3
8          3           457.08 /_  -77.7 =     97.223 +j   -446.62

ELEMENT = "Line.L8"
8          2           9.0225 /_ -147.3 =    -7.5926 +j   -4.8741
------------
12         2           9.0227 /_   32.7 =      7.593 +j    4.8739

ELEMENT = "Line.L9"
8          1           46.542 /_  -28.0 =     41.077 +j   -21.883
------------
9          1           46.542 /_  152.0 =    -41.077 +j    21.883

ELEMENT = "Line.L10"
8          1           557.25 /_  -21.0 =     520.35 +j    -199.4
8          2           391.31 /_ -139.2 =    -296.44 +j   -255.43
8          3           457.08 /_  102.3 =    -97.223 +j    446.62
------------
13         1           557.25 /_  159.0 =    -520.35 +j     199.4
13         2           391.31 /_   40.8 =     296.44 +j    255.43
13         3           457.08 /_  -77.7 =     97.222 +j   -446.62

ELEMENT = "Line.L11"
9R         1           28.071 /_  -28.1 =     24.771 +j   -13.205
------------
14         1           28.071 /_  151.9 =    -24.771 +j    13.206

ELEMENT = "Line.L12"
13         3           46.499 /_   92.3 =    -1.8804 +j    46.461
------------
34         3           46.499 /_  -87.7 =     1.8802 +j   -46.461

ELEMENT = "Line.L13"
13         1           229.21 /_  -30.4 =     197.67 +j   -116.03
13         2            155.5 /_ -155.1 =    -141.06 +j    -65.44
13         3           153.76 /_   88.6 =     3.6346 +j    153.71
------------
18         1           229.21 /_  149.6 =    -197.67 +j    116.03
18         2           155.51 /_   24.9 =     141.07 +j    65.439
18         3           153.76 /_  -91.4 =    -3.6368 +j   -153.72

ELEMENT = "Line.L14"
14         1           18.754 /_  -28.1 =     16.549 +j   -8.8237
------------
11         1           18.754 /_  151.9 =    -16.549 +j    8.8242

ELEMENT = "Line.L15"
14         1           9.3169 /_  -28.1 =     8.2219 +j   -4.3824
------------
10         1           9.3171 /_  151.9 =    -8.2219 +j    4.3829

ELEMENT = "Line.L16"
15         3           18.416 /_   92.3 =   -0.74067 +j    18.401
------------
16         3           18.417 /_  -87.7 =    0.73999 +j   -18.402

ELEMENT = "Line.L17"
15         3           9.2033 /_   92.3 =   -0.37205 +j    9.1957
------------
17         3           9.2036 /_  -87.7 =    0.37141 +j   -9.1961

ELEMENT = "Line.L18"
18         1           37.421 /_  -28.9 =     32.765 +j   -18.077
------------
19         1           37.421 /_  151.1 =    -32.765 +j    18.077

ELEMENT = "Line.L19"
18         1           55.966 /_  -29.1 =     48.923 +j    -27.18
18         2           19.101 /_ -147.8 =    -16.162 +j   -10.181
18         3           55.757 /_   92.2 =    -2.1641 +j    55.715
------------
21         1           55.967 /_  150.9 =    -48.923 +j    27.181
21         2           19.101 /_   32.2 =     16.162 +j     10.18
21         3           55.758 /_  -87.8 =     2.1633 +j   -55.716

ELEMENT = "Line.L20"
19         1           18.634 /_  -28.9 =     16.314 +j   -9.0039
------------
20         1           18.634 /_  151.1 =    -16.314 +j    9.0045

ELEMENT = "Line.L21"
21         2           19.103 /_ -147.8 =    -16.166 +j   -10.177
------------
22         2           19.103 /_   32.2 =     16.167 +j    10.177

ELEMENT = "Line.L22"
21         1           55.967 /_  -29.1 =     48.923 +j   -27.181
21         2        0.0046273 /_  -34.8 =  0.0038001 +j -0.0026402
21         3           55.758 /_   92.2 =    -2.1633 +j    55.716
------------
23         1           55.967 /_  150.9 =    -48.923 +j    27.182
23         2        0.0038929 /_  145.2 =  -0.0031971 +j 0.0022211
23         3           55.758 /_  -87.8 =     2.1627 +j   -55.716

ELEMENT = "Line.L23"
23         3           18.578 /_   92.2 =   -0.71858 +j    18.564
------------
24         3           18.579 /_  -87.8 =    0.71759 +j   -18.565

ELEMENT = "Line.L24"
23         1           55.967 /_  -29.1 =     48.923 +j   -27.182
23         2        0.0038929 /_  -34.8 =  0.0031971 +j -0.0022211
23         3            37.18 /_   92.2 =    -1.4441 +j    37.152
------------
25         1           55.967 /_  150.9 =    -48.923 +j    27.183
25         2        0.0030851 /_  145.2 =  -0.0025337 +j 0.0017601
25         3           37.181 /_  -87.8 =     1.4434 +j   -37.153

ELEMENT = "Line.L25"
25R        1           18.633 /_  -29.1 =     16.285 +j   -9.0557
25R        3           18.591 /_   92.2 =   -0.72132 +j    18.577
------------
26         1           18.634 /_  150.9 =    -16.285 +j    9.0566
26         3           18.591 /_  -87.8 =    0.72059 +j   -18.577

ELEMENT = "Line.L26"
25         1           37.101 /_  -29.0 =     32.434 +j   -18.014
25         2        0.0030851 /_  -34.8 =  0.0025337 +j -0.0017601
25         3            18.59 /_   92.2 =   -0.72206 +j    18.576
------------
28         1           37.101 /_  151.0 =    -32.434 +j    18.015
28         2        0.0024975 /_  145.2 =  -0.0020511 +j 0.0014249
28         3            18.59 /_  -87.8 =    0.72154 +j   -18.576

ELEMENT = "Line.L27"
26         1           18.634 /_  -29.1 =     16.285 +j   -9.0566
26         3       0.00072582 /_ -142.2 =  -0.00057378 +j -0.00044451
------------
27         1           18.634 /_  150.9 =    -16.285 +j    9.0573
27         3       7.276E-012 /_    0.0 =  7.276E-012 +j         0

ELEMENT = "Line.L28"
26         3           18.592 /_   92.2 =   -0.72001 +j    18.578
------------
31         3           18.592 /_  -87.8 =    0.71961 +j   -18.578

ELEMENT = "Line.L29"
27         1           18.634 /_  -29.1 =     16.285 +j   -9.0573
------------
33         1           18.634 /_  150.9 =    -16.285 +j    9.0584

ELEMENT = "Line.L30"
28         1           18.467 /_  -29.1 =     16.143 +j   -8.9685
28         2        0.0024975 /_  -34.8 =  0.0020511 +j -0.0014249
28         3            18.59 /_   92.2 =   -0.72154 +j    18.576
------------
29         1           18.467 /_  150.9 =    -16.142 +j    8.9695
29         2         0.001616 /_  145.2 =  -0.0013272 +j 0.00092194
29         3           18.591 /_  -87.8 =    0.72077 +j   -18.577

ELEMENT = "Line.L31"
29         1        0.0018687 /_   83.5 =  0.00021102 +j 0.0018567
29         2         0.001616 /_  -34.8 =  0.0013272 +j -0.00092194
29         3           18.591 /_   92.2 =   -0.72077 +j    18.577
------------
30         1       0.00067952 /_  -96.5 =  -7.6733E-005 +j -0.00067517
30         2       0.00058763 /_  145.2 =  -0.00048263 +j 0.00033524
30         3           18.591 /_  -87.8 =    0.71986 +j   -18.577

ELEMENT = "Line.L32"
30         1       0.00067952 /_   83.5 =  7.6733E-005 +j 0.00067517
30         2       0.00058763 /_  -34.8 =  0.00048263 +j -0.00033524
30         3       0.00064121 /_ -143.6 =  -0.00051633 +j -0.00038019
------------
250        1      2.3794E-009 /_  177.6 =  -2.3774E-009 +j 9.8225E-011
250        2      2.4619E-009 /_   59.2 =  1.2624E-009 +j 2.1137E-009
250        3      2.4007E-009 /_  -60.8 =  1.1714E-009 +j -2.0955E-009

ELEMENT = "Line.L33"
31         3           9.2977 /_   92.2 =   -0.35952 +j    9.2907
------------
32         3            9.298 /_  -87.8 =    0.35898 +j    -9.291

ELEMENT = "Line.L34"
34         3            27.62 /_   92.3 =    -1.1129 +j    27.597
------------
15         3            27.62 /_  -87.7 =     1.1127 +j   -27.597

ELEMENT = "Line.L35"
35         1           18.423 /_  -29.0 =     16.118 +j   -8.9228
35         2           18.428 /_ -147.9 =    -15.615 +j   -9.7857
------------
36         1           18.424 /_  151.0 =    -16.118 +j    8.9244
36         2           18.428 /_   32.1 =     15.616 +j    9.7846

ELEMENT = "Line.L36"
35         1           108.72 /_  -34.9 =     89.132 +j   -62.258
35         2           108.38 /_ -155.4 =     -98.56 +j   -45.068
35         3           98.172 /_   86.6 =      5.802 +j    98.001
------------
40         1           108.72 /_  145.1 =    -89.132 +j    62.259
40         2           108.38 /_   24.6 =     98.561 +j    45.067
40         3           98.173 /_  -93.4 =    -5.8026 +j   -98.001

ELEMENT = "Line.L37"
36         1           18.424 /_  -29.0 =     16.118 +j   -8.9244
------------
37         1           18.424 /_  151.0 =    -16.118 +j     8.925

ELEMENT = "Line.L38"
36         2           18.428 /_ -147.9 =    -15.616 +j   -9.7846
------------
38         2           18.428 /_   32.1 =     15.616 +j    9.7843

ELEMENT = "Line.L39"
38         2           9.1115 /_ -147.9 =    -7.7214 +j   -4.8374
------------
39         2           9.1118 /_   32.1 =      7.722 +j     4.837

ELEMENT = "Line.L40"
40         3           9.2779 /_   92.2 =    -0.3509 +j    9.2712
------------
41         3           9.2782 /_  -87.8 =    0.35031 +j   -9.2715

ELEMENT = "Line.L41"
40         1           108.72 /_  -34.9 =     89.132 +j   -62.259
40         2           108.38 /_ -155.4 =    -98.561 +j   -45.067
40         3           88.943 /_   86.0 =     6.1535 +j     88.73
------------
42         1           108.72 /_  145.1 =    -89.132 +j    62.259
42         2           108.38 /_   24.6 =     98.562 +j    45.067
42         3           88.943 /_  -94.0 =    -6.1542 +j    -88.73

ELEMENT = "Line.L42"
42         2           19.014 /_ -148.0 =    -16.123 +j   -10.078
------------
43         2           19.014 /_   32.0 =     16.124 +j    10.078

ELEMENT = "Line.L43"
42         1           99.341 /_  -35.5 =     80.879 +j   -57.683
42         2           89.557 /_ -157.0 =    -82.439 +j   -34.989
42         3           88.943 /_   86.0 =     6.1542 +j     88.73
------------
44         1           99.342 /_  144.5 =    -80.879 +j    57.683
44         2           89.557 /_   23.0 =      82.44 +j    34.988
44         3           88.944 /_  -94.0 =    -6.1547 +j    -88.73

ELEMENT = "Line.L44"
44         1           18.773 /_  -29.1 =     16.411 +j   -9.1163
------------
45         1           18.773 /_  150.9 =    -16.411 +j    9.1167

ELEMENT = "Line.L45"
44         1           80.715 /_  -37.0 =     64.468 +j   -48.567
44         2           89.557 /_ -157.0 =     -82.44 +j   -34.988
44         3           88.944 /_   86.0 =     6.1547 +j     88.73
------------
47         1           80.716 /_  143.0 =    -64.468 +j    48.568
47         2           89.558 /_   23.0 =      82.44 +j    34.988
47         3           88.944 /_  -94.0 =    -6.1554 +j   -88.731

ELEMENT = "Line.L46"
45         1           9.4559 /_  -29.1 =     8.2659 +j   -4.5924
------------
46         1           9.4562 /_  150.9 =    -8.2659 +j     4.593

ELEMENT = "Line.L47"
47         1           35.251 /_  -38.0 =     27.763 +j   -21.723
47         2           36.494 /_ -157.0 =    -33.594 +j   -14.256
47         3            35.85 /_   83.1 =     4.3227 +j    35.588
------------
48         1           35.251 /_  142.0 =    -27.762 +j    21.723
48         2           36.494 /_   23.0 =     33.594 +j    14.256
48         3            35.85 /_  -96.9 =    -4.3232 +j   -35.589

ELEMENT = "Line.L48"
47         1           27.581 /_  -35.0 =       22.6 +j   -15.811
47         2           35.156 /_ -157.0 =    -32.362 +j   -13.734
47         3           35.366 /_   90.5 =   -0.32384 +j    35.364
------------
49         1           27.582 /_  145.0 =      -22.6 +j    15.811
49         2           35.157 /_   23.0 =     32.363 +j    13.734
49         3           35.366 /_  -89.5 =    0.32309 +j   -35.365

ELEMENT = "Line.L49"
49         1           9.4613 /_  -29.1 =     8.2691 +j   -4.5976
49         2        0.0031632 /_   -9.6 =   0.003119 +j -0.00052684
49         3            18.61 /_   92.0 =   -0.65908 +j    18.598
------------
50         1           9.4614 /_  150.9 =    -8.2689 +j    4.5982
50         2        0.0023724 /_  170.4 =  -0.0023393 +j 0.00039516
50         3            18.61 /_  -88.0 =    0.65833 +j   -18.598

ELEMENT = "Line.L50"
50         1           9.4614 /_  -29.1 =     8.2689 +j   -4.5982
50         2        0.0023724 /_   -9.6 =  0.0023393 +j -0.00039516
50         3        0.0024022 /_ -159.8 =  -0.0022547 +j -0.000829
------------
51         1           9.4615 /_  150.9 =    -8.2687 +j    4.5988
51         2        0.0015816 /_  170.4 =  -0.0015595 +j 0.00026346
51         3        0.0016015 /_   20.2 =  0.0015031 +j 0.00055267

ELEMENT = "Line.L51"
51         1        0.0012177 /_   69.7 =  0.00042284 +j 0.0011419
51         2        0.0015816 /_   -9.6 =  0.0015595 +j -0.00026346
51         3        0.0016015 /_ -159.8 =  -0.0015031 +j -0.00055267
------------
151        1      2.3668E-009 /_  177.3 =  -2.3642E-009 +j 1.1096E-010
151        2      2.4503E-009 /_   58.3 =  1.2878E-009 +j 2.0846E-009
151        3      2.4046E-009 /_  -61.3 =  1.1532E-009 +j -2.11E-009

ELEMENT = "Line.L52"
52         1           315.19 /_  -13.6 =     306.29 +j   -74.362
52         2           245.43 /_ -129.3 =    -155.38 +j   -189.99
52         3           265.58 /_  111.9 =    -98.975 +j    246.45
------------
53         1           315.19 /_  166.4 =    -306.29 +j    74.363
53         2           245.43 /_   50.7 =     155.38 +j    189.99
53         3           265.58 /_  -68.1 =     98.975 +j   -246.45

ELEMENT = "Line.L53"
53         1           297.14 /_  -12.7 =     289.89 +j   -65.274
53         2           245.43 /_ -129.3 =    -155.38 +j   -189.99
53         3           265.58 /_  111.9 =    -98.975 +j    246.45
------------
54         1           297.14 /_  167.3 =    -289.89 +j    65.274
54         2           245.43 /_   50.7 =     155.38 +j    189.99
54         3           265.58 /_  -68.1 =     98.974 +j   -246.45

ELEMENT = "Line.L54"
54         1           9.2391 /_  -29.1 =     8.0744 +j   -4.4906
54         2           9.0631 /_ -148.0 =    -7.6841 +j   -4.8057
54         3        0.0016037 /_ -155.5 =  -0.0014593 +j -0.00066515
------------
55         1           9.2396 /_  150.9 =    -8.0744 +j    4.4914
55         2           9.0635 /_   32.0 =     7.6849 +j    4.8051
55         3       0.00080186 /_   24.5 =  0.00072963 +j 0.00033258

ELEMENT = "Line.L55"
54         1           288.29 /_  -12.2 =     281.81 +j   -60.784
54         2           236.87 /_ -128.6 =    -147.69 +j   -185.18
54         3           265.58 /_  111.9 =    -98.973 +j    246.45
------------
57         1           288.29 /_  167.8 =    -281.81 +j    60.785
57         2           236.87 /_   51.4 =     147.69 +j    185.18
57         3           265.58 /_  -68.1 =     98.972 +j   -246.45

ELEMENT = "Line.L56"
55         1       0.00087256 /_   96.1 =  -9.2529E-005 +j 0.00086764
55         2           9.0635 /_ -148.0 =    -7.6849 +j   -4.8051
55         3       0.00080186 /_ -155.5 =  -0.00072963 +j -0.00033258
------------
56         1      4.5475E-012 /_  180.0 =  -4.5475E-012 +j         0
56         2           9.0639 /_   32.0 =     7.6857 +j    4.8046
56         3       7.276E-012 /_    0.0 =  7.276E-012 +j         0

ELEMENT = "Line.L57"
57         2           18.411 /_ -148.2 =    -15.646 +j   -9.7052
------------
58         2           18.412 /_   31.8 =     15.646 +j    9.7049

ELEMENT = "Line.L58"
57         1           288.29 /_  -12.2 =     281.81 +j   -60.785
57         2           219.61 /_ -127.0 =    -132.05 +j   -175.48
57         3           265.58 /_  111.9 =    -98.972 +j    246.45
------------
60         1           288.29 /_  167.8 =    -281.81 +j    60.787
60         2           219.61 /_   53.0 =     132.05 +j    175.48
60         3           265.58 /_  -68.1 =     98.969 +j   -246.45

ELEMENT = "Line.L59"
58         2           9.0949 /_ -148.2 =    -7.7289 +j   -4.7938
------------
59         2           9.0951 /_   31.8 =     7.7294 +j    4.7935

ELEMENT = "Line.L60"
60         1        0.0018361 /_   91.5 =  -4.94E-005 +j 0.0018354
60         2        0.0017535 /_  -40.0 =  0.0013425 +j -0.001128
60         3        0.0015755 /_ -148.9 =  -0.0013497 +j -0.00081288
------------
61         1      1.3683E-005 /_   88.3 =  4.1755E-007 +j 1.3677E-005
61         2      1.4046E-005 /_  -30.1 =  1.2157E-005 +j -7.0345E-006
61         3      1.3923E-005 /_ -150.8 =  -1.2149E-005 +j -6.8023E-006

ELEMENT = "Line.L61"
60         1           45.322 /_  -41.3 =      34.06 +j     -29.9
60         2           52.154 /_ -150.5 =    -45.404 +j   -25.662
60         3           80.685 /_   92.2 =    -3.1468 +j    80.624
------------
62         1           45.327 /_  138.7 =     -34.06 +j    29.907
62         2           52.158 /_   29.5 =      45.41 +j    25.658
62         3           80.688 /_  -87.8 =     3.1401 +j   -80.627

ELEMENT = "Line.L62"
62         1           45.327 /_  -41.3 =      34.06 +j   -29.907
62         2           52.158 /_ -150.5 =     -45.41 +j   -25.658
62         3           62.103 /_   92.5 =    -2.7497 +j    62.042
------------
63         1            45.33 /_  138.7 =    -34.059 +j    29.913
63         2            52.16 /_   29.5 =     45.415 +j    25.655
63         3           62.105 /_  -87.5 =     2.7449 +j   -62.045

ELEMENT = "Line.L63"
63         1           26.949 /_  -49.2 =     17.613 +j   -20.397
63         2            52.16 /_ -150.5 =    -45.415 +j   -25.655
63         3           62.105 /_   92.5 =    -2.7449 +j    62.045
------------
64         1           26.957 /_  130.8 =    -17.613 +j    20.407
64         2           52.165 /_   29.5 =     45.424 +j    25.649
64         3            62.11 /_  -87.5 =     2.7355 +j    -62.05

ELEMENT = "Line.L64"
64         1           26.957 /_  -49.2 =     17.613 +j   -20.407
64         2           17.881 /_ -157.5 =    -16.519 +j   -6.8441
64         3            62.11 /_   92.5 =    -2.7355 +j     62.05
------------
65         1           26.966 /_  130.8 =    -17.612 +j     20.42
65         2           17.888 /_   22.5 =      16.53 +j    6.8371
65         3           62.115 /_  -87.5 =     2.7241 +j   -62.056

ELEMENT = "Line.L65"
65         1        0.0097314 /_   86.5 =  0.00059247 +j 0.0097133
65         2         0.010091 /_  -31.9 =  0.0085692 +j -0.0053297
65         3           34.833 /_   92.7 =    -1.6514 +j    34.794
------------
66         1      9.9734E-012 /_  133.2 =  -6.8212E-012 +j 7.276E-012
66         2      5.7521E-012 /_   71.6 =  1.819E-012 +j 5.457E-012
66         3           34.837 /_  -87.3 =     1.6427 +j   -34.799

ELEMENT = "Line.L66"
67         1           54.518 /_  -30.4 =     47.026 +j   -27.581
------------
68         1           54.518 /_  149.6 =    -47.026 +j    27.581

ELEMENT = "Line.L67"
67         1           118.53 /_   22.3 =     109.69 +j    44.903
67         2            126.1 /_ -108.1 =    -39.141 +j   -119.87
67         3           132.96 /_  133.7 =    -91.788 +j    96.188
------------
72         1           118.53 /_ -157.7 =    -109.69 +j   -44.902
72         2            126.1 /_   71.9 =     39.142 +j    119.87
72         3           132.96 /_  -46.3 =     91.787 +j   -96.188

ELEMENT = "Line.L68"
67         1           82.957 /_  -30.6 =     71.414 +j   -42.214
67         2           54.276 /_ -148.8 =    -46.438 +j   -28.095
67         3           64.628 /_   91.0 =    -1.1285 +j    64.618
------------
97         1           82.957 /_  149.4 =    -71.414 +j    42.214
97         2           54.276 /_   31.2 =     46.439 +j    28.095
97         3           64.628 /_  -89.0 =     1.1277 +j   -64.618

ELEMENT = "Line.L69"
68         1           45.452 /_  -30.4 =     39.203 +j   -23.001
------------
69         1           45.452 /_  149.6 =    -39.203 +j    23.001

ELEMENT = "Line.L70"
69         1            27.29 /_  -30.4 =     23.534 +j   -13.815
------------
70         1            27.29 /_  149.6 =    -23.534 +j    13.816

ELEMENT = "Line.L71"
70         1           18.197 /_  -30.4 =     15.693 +j   -9.2136
------------
71         1           18.198 /_  149.6 =    -15.692 +j    9.2142

ELEMENT = "Line.L72"
72         3           55.452 /_   90.9 =   -0.86361 +j    55.445
------------
73         3           55.452 /_  -89.1 =     0.8631 +j   -55.446

ELEMENT = "Line.L73"
72         1           118.53 /_   22.3 =     109.69 +j    44.902
72         2            126.1 /_ -108.1 =    -39.142 +j   -119.87
72         3           99.635 /_  155.9 =    -90.923 +j    40.743
------------
76         1           118.53 /_ -157.7 =    -109.69 +j   -44.902
76         2            126.1 /_   71.9 =     39.142 +j    119.87
76         3           99.634 /_  -24.1 =     90.923 +j   -40.743

ELEMENT = "Line.L74"
73         3           37.297 /_   90.9 =   -0.57146 +j    37.292
------------
74         3           37.297 /_  -89.1 =     0.5708 +j   -37.293

ELEMENT = "Line.L75"
74         3           18.206 /_   90.9 =   -0.27582 +j    18.204
------------
75         3           18.207 /_  -89.1 =    0.27507 +j   -18.205

ELEMENT = "Line.L76"
76         1           77.173 /_   60.3 =     38.256 +j    67.023
76         2           77.305 /_  -57.3 =     41.765 +j   -65.052
76         3            76.91 /_ -177.7 =    -76.851 +j   -3.0227
------------
77         1           77.171 /_ -119.7 =    -38.256 +j   -67.022
77         2           77.304 /_  122.7 =    -41.764 +j    65.052
77         3           76.909 /_    2.3 =      76.85 +j     3.022

ELEMENT = "Line.L77"
76         1           32.862 /_    5.1 =     32.734 +j    2.8984
76         2           57.673 /_ -129.9 =    -36.964 +j   -44.269
76         3           20.981 /_  157.0 =    -19.312 +j    8.2016
------------
86         1           32.862 /_ -174.9 =    -32.734 +j   -2.8963
86         2           57.673 /_   50.1 =     36.967 +j    44.268
86         3           20.979 /_  -23.0 =     19.309 +j   -8.2026

ELEMENT = "Line.L78"
77         1           77.171 /_   60.3 =     38.256 +j    67.022
77         2           79.913 /_  -44.2 =     57.246 +j   -55.758
77         3           76.909 /_ -177.7 =     -76.85 +j    -3.022
------------
78         1           77.171 /_ -119.7 =    -38.256 +j   -67.021
78         2           79.913 /_  135.8 =    -57.246 +j    55.758
78         3           76.909 /_    2.3 =     76.849 +j    3.0218

ELEMENT = "Line.L79"
78         1           19.208 /_  -30.6 =     16.537 +j   -9.7706
78         2       0.00066779 /_  -28.9 =  0.0005845 +j -0.00032295
78         3        0.0007946 /_ -148.4 =  -0.0006767 +j -0.0004165
------------
79         1           19.208 /_  149.4 =    -16.537 +j    9.7713
79         2       1.855E-011 /_   11.3 =  1.819E-011 +j 3.638E-012
79         3       7.276E-012 /_  -90.0 =          0 +j -7.276E-012

ELEMENT = "Line.L80"
78         1           79.804 /_   74.2 =     21.719 +j    76.792
78         2           79.912 /_  -44.2 =     57.245 +j   -55.758
78         3           76.908 /_ -177.7 =    -76.849 +j   -3.0214
------------
80         1           79.803 /_ -105.8 =    -21.718 +j    -76.79
80         2           79.911 /_  135.8 =    -57.244 +j    55.757
80         3           76.907 /_    2.3 =     76.847 +j    3.0205

ELEMENT = "Line.L81"
80         1           79.803 /_   74.2 =     21.718 +j     76.79
80         2           86.306 /_  -32.6 =     72.706 +j   -46.503
80         3           76.907 /_ -177.7 =    -76.847 +j   -3.0205
------------
81         1           79.802 /_ -105.8 =    -21.718 +j    -76.79
81         2           86.305 /_  147.4 =    -72.706 +j    46.502
81         3           76.906 /_    2.3 =     76.847 +j    3.0202

ELEMENT = "Line.L82"
81         1           79.802 /_   74.2 =     21.718 +j     76.79
81         2           86.305 /_  -32.6 =     72.706 +j   -46.502
81         3           82.303 /_ -158.5 =    -76.557 +j   -30.213
------------
82         1           79.801 /_ -105.8 =    -21.718 +j   -76.789
82         2           86.305 /_  147.4 =    -72.705 +j    46.502
82         3           82.302 /_   21.5 =     76.556 +j    30.212

ELEMENT = "Line.L83"
81         3           27.194 /_   90.6 =   -0.29006 +j    27.193
------------
84         3           27.195 /_  -89.4 =    0.28879 +j   -27.193

ELEMENT = "Line.L84"
82         1           86.206 /_   85.9 =     6.2308 +j     85.98
82         2           86.305 /_  -32.6 =     72.705 +j   -46.502
82         3           82.302 /_ -158.5 =    -76.556 +j   -30.212
------------
83         1           86.205 /_  -94.1 =    -6.2307 +j    -85.98
83         2           86.304 /_  147.4 =    -72.704 +j    46.502
83         3           82.301 /_   21.5 =     76.555 +j    30.212

ELEMENT = "Line.L85"
84         3           18.137 /_   90.6 =   -0.19046 +j    18.136
------------
85         3           18.137 /_  -89.4 =    0.18957 +j   -18.136

ELEMENT = "Line.L86"
86         1           32.862 /_    5.1 =     32.734 +j    2.8963
86         2           49.216 /_ -126.4 =    -29.197 +j    -39.62
86         3           20.979 /_  157.0 =    -19.309 +j    8.2026
------------
87         1           32.862 /_ -174.9 =    -32.734 +j   -2.8948
87         2           49.216 /_   53.6 =     29.198 +j    39.619
87         3           20.979 /_  -23.0 =     19.308 +j   -8.2034

ELEMENT = "Line.L87"
87         1           20.957 /_   35.3 =     17.098 +j    12.117
------------
88         1           20.956 /_ -144.7 =    -17.098 +j   -12.117

ELEMENT = "Line.L88"
87         1           18.153 /_  -30.5 =     15.635 +j   -9.2221
87         2           33.261 /_ -114.2 =    -13.632 +j   -30.339
87         3           20.979 /_  157.0 =    -19.308 +j    8.2034
------------
89         1           18.153 /_  149.5 =    -15.635 +j     9.223
89         2           33.261 /_   65.8 =     13.633 +j    30.339
89         3           20.978 /_  -23.0 =     19.307 +j   -8.2039

ELEMENT = "Line.L89"
89         2           21.164 /_  -84.7 =     1.9651 +j   -21.072
------------
90         2           21.163 /_   95.3 =    -1.9647 +j    21.072

ELEMENT = "Line.L90"
89         1           18.153 /_  -30.5 =     15.635 +j    -9.223
89         2           18.143 /_ -149.3 =    -15.598 +j   -9.2664
89         3           20.978 /_  157.0 =    -19.307 +j    8.2039
------------
91         1           18.153 /_  149.5 =    -15.635 +j    9.2237
91         2           18.143 /_   30.7 =     15.599 +j    9.2661
91         3           20.977 /_  -23.0 =     19.307 +j   -8.2043

ELEMENT = "Line.L91"
91         3           20.976 /_  157.0 =    -19.305 +j    8.2053
------------
92         3           20.976 /_  -23.0 =     19.304 +j   -8.2056

ELEMENT = "Line.L92"
91         1           18.153 /_  -30.5 =     15.635 +j   -9.2237
91         2           18.143 /_ -149.3 =    -15.599 +j   -9.2661
91         3        0.0018536 /_ -148.4 =  -0.0015786 +j -0.00097151
------------
93         1           18.153 /_  149.5 =    -15.635 +j    9.2244
93         2           18.144 /_   30.7 =     15.599 +j    9.2658
93         3        0.0010592 /_   31.6 =  0.00090209 +j 0.00055516

ELEMENT = "Line.L93"
93         1           18.154 /_  -30.5 =     15.635 +j   -9.2254
------------
...