project/IEEE123Bus/IEEE123_Losses.Txt

LOSSES REPORT

Power Delivery Element Loss Report

Element                  kW Losses    % of Power   kvar Losses

"Transformer.REG1A"    0.00030,      0.0     0.0304848
"Line.L115"           19.28067,     0.53     40.5019
"Line.L1"              0.00357,     0.02     0.00268931
"Line.L2"              0.13649,     0.13     0.137068
"Line.L3"             13.17339,     0.38     27.6351
"Line.L4"              0.01657,     0.04     0.0157558
"Line.L5"              0.06613,     0.11     0.0653488
"Line.L6"              0.02299,     0.05     0.0220101
"Line.L7"              8.63751,     0.25     18.101
"Line.L8"              0.00461,     0.02     0.00349148
"Line.L9"              0.12270,     0.12     0.123256
"Line.L10"            11.81326,     0.36     24.6733
"Line.L11"             0.08431,     0.14     0.0833381
"Line.L12"             0.08164,     0.08     0.082009
"Line.L13"             4.92088,     0.44     9.95056
"Line.L14"             0.02214,     0.05     0.0211915
"Line.L15"             0.00546,     0.03     0.00428871
"Line.L16"             0.03202,     0.08     0.0305649
"Line.L17"             0.00746,     0.04     0.00579686
"Line.L18"             0.08813,     0.11     0.0881284
"Line.L19"             0.12620,     0.04     0.251751
"Line.L20"             0.02841,     0.07     0.0272256
"Line.L21"             0.04823,     0.11     0.0461711
"Line.L22"             0.11263,     0.05     0.231423
"Line.L23"             0.04779,     0.12     0.0457173
"Line.L24"             0.09151,     0.05     0.185839
"Line.L25"             0.01744,     0.02     0.0356532
"Line.L26"             0.02609,     0.02     0.0505665
"Line.L27"             0.00828,     0.02     0.016058
"Line.L28"             0.01958,     0.05     0.018733
"Line.L29"             0.04371,     0.11     0.04183
"Line.L30"             0.01487,     0.02     0.0244319
"Line.L31"             0.01048,     0.03     0.0166682
"Line.L32"             0.00000,      0.0     -0.00458838
"Line.L33"             0.00653,     0.03     0.00513314
"Line.L34"             0.01920,     0.03     0.0189624
"Line.L35"             0.03220,     0.04     0.0658633
"Line.L36"             0.48206,     0.08     0.978882
"Line.L37"             0.02564,     0.07     0.0245425
"Line.L38"             0.02137,     0.05     0.0203767
"Line.L39"             0.00679,     0.03     0.00521039
"Line.L40"             0.00704,     0.04     0.00552346
"Line.L41"             0.45891,     0.07     0.92936
"Line.L42"             0.04551,     0.11     0.043562
"Line.L43"             0.29919,     0.05     0.608679
"Line.L44"             0.01774,     0.04     0.0170299
"Line.L45"             0.32689,     0.06     0.664602
"Line.L46"             0.00675,     0.03     0.00540948
"Line.L47"             0.03358,     0.02     0.0656981
"Line.L48"             0.04808,     0.02     0.0946222
"Line.L49"             0.00814,     0.01     0.013807
"Line.L50"             0.00196,     0.01     -0.000554633
"Line.L51"             0.00000,      0.0     -0.0101386
"Line.L52"             2.68215,     0.14     5.59007
"Line.L53"             1.59078,     0.08     3.30172
"Line.L54"             0.00337,     0.01     0.000824171
"Line.L55"             4.26848,     0.23     8.7496
"Line.L56"             0.00200,     0.01     -0.00185301
"Line.L57"             0.02133,     0.05     0.0203328
"Line.L58"             8.83868,     0.48     18.081
"Line.L59"             0.00521,     0.03     0.00398401
"Line.L60"             0.00000,      0.0     -0.0124369
"Line.L61"             0.56361,     0.15     0.219693
"Line.L62"             0.29519,     0.09     0.104316
"Line.L63"             0.53265,     0.18     0.179285
"Line.L64"             0.45212,     0.21     0.133778
"Line.L65"             0.11361,     0.15     -0.0147099
"Line.L66"             0.14965,     0.12     0.150663
"Line.L67"             0.76791,     0.09     1.57409
"Line.L68"             0.20745,     0.05     0.424648
"Line.L69"             0.14302,     0.14     0.143561
"Line.L70"             0.06093,     0.10     0.0600853
"Line.L71"             0.02293,     0.06     0.021818
"Line.L72"             0.21288,     0.17     0.214376
"Line.L73"             0.47098,     0.06     1.01154
"Line.L74"             0.12256,     0.15     0.122438
"Line.L75"             0.03338,     0.08     0.0317711
"Line.L76"             0.41383,     0.17     0.835302
"Line.L77"             0.22964,     0.09     0.513956
"Line.L78"             0.10682,     0.05     0.215266
"Line.L79"             0.00719,     0.02     0.0115214
"Line.L80"             0.51803,     0.32     1.07131
"Line.L81"             0.20502,     0.17     0.42475
"Line.L82"             0.30034,     0.50     0.602073
"Line.L83"             0.12567,     0.21     0.123868
"Line.L84"             0.31420,     1.55     0.642834
"Line.L85"             0.03934,     0.10     0.0374025
"Line.L86"             0.11714,     0.05     0.242582
"Line.L87"             0.01935,     0.05     0.0187018
"Line.L88"             0.04031,     0.02     0.080864
"Line.L89"             0.02819,     0.07     0.0272746
"Line.L90"             0.01759,     0.01     0.0311178
"Line.L91"             0.03323,     0.08     0.0321135
"Line.L92"             0.01083,     0.01     0.0194786
"Line.L93"             0.02282,     0.06     0.0216993
"Line.L94"             0.00863,     0.02     0.0127183
"Line.L95"             0.00414,     0.02     0.00316217
"Line.L96"             0.01629,     0.01     0.0266429
"Line.L97"             0.02772,     0.03     0.0452898
"Line.L98"             0.00971,     0.02     0.0146164
"Line.L99"             0.00000,      0.0     -0.0191862
"Line.L118"            0.11447,     0.04     0.233785
"Line.L100"            0.11724,     0.12     0.117683
"Line.L101"            0.11453,     0.05     0.255696
"Line.L102"            0.10849,     0.14     0.108299
"Line.L103"            0.05852,     0.15     0.0557118
"Line.L104"            0.07424,     0.09     0.074082
"Line.L105"            0.11941,     0.08     0.267803
"Line.L106"            0.04750,     0.12     0.0451486
"Line.L107"            0.47622,     0.33     0.480458
"Line.L108"            0.00000,      0.0     -0.023954
"Line.L109"            0.16384,     0.16     0.164558
"Line.L110"            0.01213,     0.06     0.00935768
"Line.L111"            0.04407,     0.05     0.0440384
"Line.L112"            0.10440,     0.17     0.103163
"Line.L113"            0.00689,     0.03     0.00533099
"Line.L114"            1.02656,     0.14     2.09914
"Line.L116"            5.66185,     0.28     11.8505
"Line.L117"            2.38274,     0.16     4.84018
"Line.SW0"             0.00082,      0.0     3.49246E-013
"Line.SW1"             0.00024,      0.0     -1.45519E-013
"Line.SW2"             0.00005,      0.0     0
"Line.SW3"             0.00012,      0.0     -2.91038E-014
"Line.SW4"             0.00001,      0.0     -1.45519E-014
"Line.SW5"             0.00000,      0.0     0
"Line.SW6"             0.00000,      0.0     -5.29396E-026
"Line.SW7"             0.00000,      0.0     5.29396E-026
"Line.SW8"             0.00000,      0.0     0
"Line.SW9"             0.00000,      0.0     4.76456E-025
"Line.SW10"            0.00000,      0.0     0
"Line.SW11"            0.00000,      0.0     -5.29396E-026
"Transformer.XFM1"     0.00000,      0.0     0.000100006
"Capacitor.C83"        0.00000,      0.0     -642.186
"Capacitor.C88A"       0.00000,      0.0     -52.7716
"Capacitor.C90B"       0.00000,      0.0     -52.7296
"Capacitor.C92C"       0.00000,      0.0     -53.1223
"Transformer.REG2A"    0.00000,      0.0     0.000227313
"Transformer.REG3A"    0.00000,      0.0     0.000102686
"Transformer.REG4A"    0.00002,      0.0     0.01675
"Transformer.REG3C"    0.00000,      0.0     9.97041E-005
"Transformer.REG4B"    0.00001,      0.0     0.00864041
"Transformer.REG4C"    0.00001,      0.0     0.0105819

LINE LOSSES=                        95.8 kW
TRANSFORMER LOSSES=                  0.0 kW

TOTAL LOSSES=                       95.8 kW

TOTAL LOAD POWER =                3512.5 kW
Percent Losses for Circuit =      2.73 %
