project/IEEE123Bus/IEEE123_Power_elem_kVA.txt

CIRCUIT ELEMENT POWER FLOW

(Power Flow into element from indicated Bus)

Power Delivery Elements

  Bus  Phase     kW     +j   kvar         kVA         PF

ELEMENT = "Vsource.SOURCE"
150        1     -1459.5 +j   -582.6     1571.5       0.9287
150        2      -960.5 +j   -341.8     1019.5       0.9421
150        3     -1188.3 +j   -399.2     1253.6       0.9479
   TERMINAL TOTAL -3608.4 +j  -1323.7     3843.5       0.9388
150        0         0.0 +j      0.0        0.0       1.0000
150        0         0.0 +j      0.0        0.0       1.0000
150        0         0.0 +j      0.0        0.0       1.0000
   TERMINAL TOTAL     0.0 +j      0.0        0.0       1.0000

ELEMENT = "Transformer.REG1A"
150        1      1459.5 +j    582.6     1571.5       0.9287
150        2       960.5 +j    341.8     1019.5       0.9421
150        3      1188.3 +j    399.2     1253.6       0.9479
150        0         0.0 +j      0.0        0.0       1.0000
   TERMINAL TOTAL  3608.4 +j   1323.7     3843.5       0.9388
150R       1     -1459.5 +j   -582.6     1571.5       0.9287
150R       2      -960.5 +j   -341.8     1019.5       0.9421
150R       3     -1188.3 +j   -399.2     1253.6       0.9479
150R       0         0.0 +j      0.0        0.0       1.0000
   TERMINAL TOTAL -3608.4 +j  -1323.6     3843.5       0.9388

ELEMENT = "Line.L115"
149        1      1459.5 +j    582.6     1571.5       0.9287
149        2       960.5 +j    341.8     1019.5       0.9421
149        3      1188.3 +j    399.2     1253.6       0.9479
   TERMINAL TOTAL  3608.4 +j   1323.6     3843.5       0.9388
1          1     -1448.2 +j   -559.4     1552.5       0.9328
1          2      -960.1 +j   -335.8     1017.1       0.9439
1          3     -1180.7 +j   -388.0     1242.9       0.9500
   TERMINAL TOTAL -3589.1 +j  -1283.1     3811.5       0.9416

ELEMENT = "Line.L1"
1          2        20.0 +j     10.0       22.4       0.8944
   TERMINAL TOTAL    20.0 +j     10.0       22.4       0.8944
2          2       -20.0 +j    -10.0       22.4       0.8944
   TERMINAL TOTAL   -20.0 +j    -10.0       22.4       0.8944

ELEMENT = "Line.L2"
1          3       102.9 +j     51.5      115.0       0.8940
   TERMINAL TOTAL   102.9 +j     51.5      115.0       0.8940
3          3      -102.7 +j    -51.4      114.9       0.8943
   TERMINAL TOTAL  -102.7 +j    -51.4      114.9       0.8943

ELEMENT = "Line.L3"
1          1      1408.2 +j    539.4     1508.0       0.9338
1          2       940.1 +j    325.8      994.9       0.9449
1          3      1077.9 +j    336.5     1129.2       0.9546
   TERMINAL TOTAL  3426.2 +j   1201.6     3630.8       0.9437
7          1     -1399.7 +j   -523.0     1494.2       0.9368
7          2      -940.0 +j   -321.1      993.3       0.9463
7          3     -1073.3 +j   -329.9     1122.9       0.9559
   TERMINAL TOTAL -3413.0 +j  -1174.0     3609.3       0.9456

ELEMENT = "Line.L4"
3          3        40.0 +j     20.0       44.7       0.8944
   TERMINAL TOTAL    40.0 +j     20.0       44.7       0.8944
4          3       -40.0 +j    -20.0       44.7       0.8944
   TERMINAL TOTAL   -40.0 +j    -20.0       44.7       0.8944

ELEMENT = "Line.L5"
3          3        62.7 +j     31.4       70.1       0.8942
   TERMINAL TOTAL    62.7 +j     31.4       70.1       0.8942
5          3       -62.6 +j    -31.3       70.0       0.8944
   TERMINAL TOTAL   -62.6 +j    -31.3       70.0       0.8944

ELEMENT = "Line.L6"
5          3        42.1 +j     21.1       47.1       0.8943
   TERMINAL TOTAL    42.1 +j     21.1       47.1       0.8943
6          3       -42.1 +j    -21.0       47.1       0.8944
   TERMINAL TOTAL   -42.1 +j    -21.0       47.1       0.8944

ELEMENT = "Line.L7"
7          1      1379.7 +j    513.0     1472.0       0.9373
7          2       940.0 +j    321.1      993.3       0.9463
7          3      1073.3 +j    329.9     1122.9       0.9559
   TERMINAL TOTAL  3393.0 +j   1164.0     3587.1       0.9459
8          1     -1374.3 +j   -502.4     1463.2       0.9392
8          2      -939.8 +j   -318.0      992.1       0.9472
8          3     -1070.4 +j   -325.5     1118.7       0.9567
   TERMINAL TOTAL -3384.4 +j  -1145.9     3573.1       0.9472

ELEMENT = "Line.L8"
8          2        20.0 +j     10.0       22.4       0.8944
   TERMINAL TOTAL    20.0 +j     10.0       22.4       0.8944
12         2       -20.0 +j    -10.0       22.4       0.8944
   TERMINAL TOTAL   -20.0 +j    -10.0       22.4       0.8944

ELEMENT = "Line.L9"
8          1       100.9 +j     50.6      112.9       0.8940
   TERMINAL TOTAL   100.9 +j     50.6      112.9       0.8940
9          1      -100.8 +j    -50.4      112.7       0.8942
   TERMINAL TOTAL  -100.8 +j    -50.4      112.7       0.8942

ELEMENT = "Line.L10"
8          1      1273.4 +j    451.8     1351.2       0.9424
8          2       919.8 +j    308.0      970.0       0.9483
8          3      1070.4 +j    325.5     1118.7       0.9567
   TERMINAL TOTAL  3263.5 +j   1085.3     3439.2       0.9489
13         1     -1266.6 +j   -438.7     1340.4       0.9449
13         2      -919.1 +j   -303.6      967.9       0.9495
13         3     -1066.0 +j   -318.4     1112.5       0.9582
   TERMINAL TOTAL -3251.7 +j  -1060.6     3420.3       0.9507

ELEMENT = "Line.L11"
9R         1        60.8 +j     30.4       68.0       0.8941
   TERMINAL TOTAL    60.8 +j     30.4       68.0       0.8941
14         1       -60.7 +j    -30.4       67.9       0.8944
   TERMINAL TOTAL   -60.7 +j    -30.4       67.9       0.8944

ELEMENT = "Line.L12"
13         3       101.2 +j     50.7      113.2       0.8942
   TERMINAL TOTAL   101.2 +j     50.7      113.2       0.8942
34         3      -101.1 +j    -50.6      113.1       0.8943
   TERMINAL TOTAL  -101.1 +j    -50.6      113.1       0.8943

ELEMENT = "Line.L13"
13         1       484.3 +j    263.5      551.3       0.8784
13         2       318.3 +j    215.9      384.6       0.8276
13         3       323.2 +j    188.6      374.2       0.8637
   TERMINAL TOTAL  1125.9 +j    668.0     1309.1       0.8600
18         1      -481.9 +j   -257.6      546.4       0.8819
18         2      -318.0 +j   -213.6      383.1       0.8301
18         3      -321.1 +j   -186.9      371.5       0.8643
   TERMINAL TOTAL -1121.0 +j   -658.1     1299.8       0.8624

ELEMENT = "Line.L14"
14         1        40.5 +j     20.3       45.3       0.8943
   TERMINAL TOTAL    40.5 +j     20.3       45.3       0.8943
11         1       -40.5 +j    -20.3       45.3       0.8944
   TERMINAL TOTAL   -40.5 +j    -20.3       45.3       0.8944

ELEMENT = "Line.L15"
14         1        20.1 +j     10.1       22.5       0.8944
   TERMINAL TOTAL    20.1 +j     10.1       22.5       0.8944
10         1       -20.1 +j    -10.1       22.5       0.8944
   TERMINAL TOTAL   -20.1 +j    -10.1       22.5       0.8944

ELEMENT = "Line.L16"
15         3        40.0 +j     20.0       44.8       0.8943
   TERMINAL TOTAL    40.0 +j     20.0       44.8       0.8943
16         3       -40.0 +j    -20.0       44.7       0.8944
   TERMINAL TOTAL   -40.0 +j    -20.0       44.7       0.8944

ELEMENT = "Line.L17"
15         3        20.0 +j     10.0       22.4       0.8944
   TERMINAL TOTAL    20.0 +j     10.0       22.4       0.8944
17         3       -20.0 +j    -10.0       22.4       0.8944
   TERMINAL TOTAL   -20.0 +j    -10.0       22.4       0.8944

ELEMENT = "Line.L18"
18         1        79.8 +j     39.9       89.2       0.8942
   TERMINAL TOTAL    79.8 +j     39.9       89.2       0.8942
19         1       -79.7 +j    -39.9       89.1       0.8944
   TERMINAL TOTAL   -79.7 +j    -39.9       89.1       0.8944

ELEMENT = "Line.L19"
18         1       119.1 +j     60.1      133.4       0.8929
18         2        42.1 +j     21.0       47.1       0.8944
18         3       120.4 +j     60.4      134.7       0.8940
   TERMINAL TOTAL   281.6 +j    141.5      315.2       0.8936
21         1      -119.1 +j    -59.9      133.3       0.8933
21         2       -42.1 +j    -21.1       47.1       0.8944
21         3      -120.3 +j    -60.2      134.6       0.8942
   TERMINAL TOTAL  -281.5 +j   -141.2      315.0       0.8938

ELEMENT = "Line.L20"
19         1        39.7 +j     19.8       44.4       0.8943
   TERMINAL TOTAL    39.7 +j     19.8       44.4       0.8943
20         1       -39.6 +j    -19.8       44.3       0.8944
   TERMINAL TOTAL   -39.6 +j    -19.8       44.3       0.8944

ELEMENT = "Line.L21"
21         2        42.1 +j     21.1       47.1       0.8942
   TERMINAL TOTAL    42.1 +j     21.1       47.1       0.8942
22         2       -42.0 +j    -21.0       47.0       0.8944
   TERMINAL TOTAL   -42.0 +j    -21.0       47.0       0.8944

ELEMENT = "Line.L22"
21         1       119.1 +j     59.9      133.3       0.8933
21         2         0.0 +j     -0.0        0.0      -0.0623
21         3       120.3 +j     60.2      134.6       0.8942
   TERMINAL TOTAL   239.4 +j    120.2      267.9       0.8937
23         1      -119.1 +j    -59.8      133.3       0.8937
23         2        -0.0 +j      0.0        0.0      -0.0626
23         3      -120.2 +j    -60.1      134.4       0.8943
   TERMINAL TOTAL  -239.3 +j   -119.9      267.7       0.8940

ELEMENT = "Line.L23"
23         3        40.0 +j     20.0       44.8       0.8942
   TERMINAL TOTAL    40.0 +j     20.0       44.8       0.8942
24         3       -40.0 +j    -20.0       44.7       0.8944
   TERMINAL TOTAL   -40.0 +j    -20.0       44.7       0.8944

ELEMENT = "Line.L24"
23         1       119.1 +j     59.8      133.3       0.8937
23         2         0.0 +j     -0.0        0.0      -0.0626
23         3        80.2 +j     40.1       89.6       0.8943
   TERMINAL TOTAL   199.3 +j     99.9      222.9       0.8939
25         1      -119.1 +j    -59.7      133.2       0.8941
25         2        -0.0 +j      0.0        0.0      -0.0627
25         3       -80.1 +j    -40.1       89.5       0.8943
   TERMINAL TOTAL  -199.2 +j    -99.7      222.7       0.8942

ELEMENT = "Line.L25"
25R        1        40.1 +j     20.1       44.9       0.8939
25R        3        40.0 +j     20.0       44.8       0.8943
   TERMINAL TOTAL    80.2 +j     40.2       89.7       0.8941
26         1       -40.1 +j    -20.1       44.9       0.8941
26         3       -40.0 +j    -20.0       44.8       0.8943
   TERMINAL TOTAL   -80.2 +j    -40.1       89.6       0.8942

ELEMENT = "Line.L26"
25         1        79.0 +j     39.5       88.3       0.8942
25         2         0.0 +j     -0.0        0.0      -0.0627
25         3        40.0 +j     20.0       44.8       0.8943
   TERMINAL TOTAL   119.0 +j     59.6      133.1       0.8942
28         1       -78.9 +j    -39.5       88.3       0.8944
28         2        -0.0 +j      0.0        0.0      -0.0627
28         3       -40.0 +j    -20.0       44.8       0.8943
   TERMINAL TOTAL  -119.0 +j    -59.5      133.0       0.8944

ELEMENT = "Line.L27"
26         1        40.1 +j     20.1       44.9       0.8941
26         3        -0.0 +j     -0.0        0.0       0.1559
   TERMINAL TOTAL    40.1 +j     20.1       44.9       0.8941
27         1       -40.1 +j    -20.1       44.9       0.8942
27         3        -0.0 +j      0.0        0.0      -0.9603
   TERMINAL TOTAL   -40.1 +j    -20.1       44.9       0.8942

ELEMENT = "Line.L28"
26         3        40.0 +j     20.0       44.8       0.8943
   TERMINAL TOTAL    40.0 +j     20.0       44.8       0.8943
31         3       -40.0 +j    -20.0       44.7       0.8944
   TERMINAL TOTAL   -40.0 +j    -20.0       44.7       0.8944

ELEMENT = "Line.L29"
27         1        40.1 +j     20.1       44.9       0.8942
   TERMINAL TOTAL    40.1 +j     20.1       44.9       0.8942
33         1       -40.1 +j    -20.0       44.8       0.8944
   TERMINAL TOTAL   -40.1 +j    -20.0       44.8       0.8944

ELEMENT = "Line.L30"
28         1        39.3 +j     19.7       43.9       0.8943
28         2         0.0 +j     -0.0        0.0      -0.0627
28         3        40.0 +j     20.0       44.8       0.8943
   TERMINAL TOTAL    79.3 +j     39.7       88.7       0.8943
29         1       -39.3 +j    -19.6       43.9       0.8945
29         2        -0.0 +j      0.0        0.0      -0.0628
29         3       -40.0 +j    -20.0       44.7       0.8943
   TERMINAL TOTAL   -79.3 +j    -39.7       88.7       0.8944

ELEMENT = "Line.L31"
29         1         0.0 +j     -0.0        0.0      -0.0695
29         2         0.0 +j     -0.0        0.0      -0.0628
29         3        40.0 +j     20.0       44.7       0.8943
   TERMINAL TOTAL    40.0 +j     20.0       44.7       0.8944
30         1        -0.0 +j      0.0        0.0      -0.0694
30         2        -0.0 +j      0.0        0.0      -0.0630
30         3       -40.0 +j    -20.0       44.7       0.8944
   TERMINAL TOTAL   -40.0 +j    -20.0       44.7       0.8945

ELEMENT = "Line.L32"
30         1         0.0 +j     -0.0        0.0      -0.0694
30         2         0.0 +j     -0.0        0.0      -0.0630
30         3        -0.0 +j     -0.0        0.0       0.1320
   TERMINAL TOTAL     0.0 +j     -0.0        0.0      -0.0000
250        1        -0.0 +j     -0.0        0.0       1.0000
250        2        -0.0 +j     -0.0        0.0       1.0000
250        3        -0.0 +j      0.0        0.0      -1.0000
   TERMINAL TOTAL    -0.0 +j     -0.0        0.0       1.0000

ELEMENT = "Line.L33"
31         3        20.0 +j     10.0       22.4       0.8944
   TERMINAL TOTAL    20.0 +j     10.0       22.4       0.8944
32         3       -20.0 +j    -10.0       22.4       0.8944
   TERMINAL TOTAL   -20.0 +j    -10.0       22.4       0.8944

ELEMENT = "Line.L34"
34         3        60.1 +j     30.1       67.2       0.8943
   TERMINAL TOTAL    60.1 +j     30.1       67.2       0.8943
15         3       -60.0 +j    -30.0       67.1       0.8943
   TERMINAL TOTAL   -60.0 +j    -30.0       67.1       0.8943

ELEMENT = "Line.L35"
35         1        39.2 +j     19.6       43.8       0.8943
35         2        40.5 +j     20.3       45.3       0.8940
35         3         0.0 +j     -0.0        0.0      -0.1460
   TERMINAL TOTAL    79.6 +j     39.9       89.1       0.8942
36         1       -39.1 +j    -19.6       43.8       0.8944
36         2       -40.5 +j    -20.2       45.3       0.8943
36         3        -0.0 +j      0.0        0.0      -0.1463
   TERMINAL TOTAL   -79.6 +j    -39.8       89.0       0.8944

ELEMENT = "Line.L36"
35         1       217.8 +j    139.1      258.4       0.8428
35         2       220.5 +j    149.4      266.3       0.8278
35         3       200.6 +j    126.2      236.9       0.8465
   TERMINAL TOTAL   638.9 +j    414.7      761.7       0.8388
40         1      -217.6 +j   -138.7      258.1       0.8432
40         2      -220.4 +j   -149.1      266.1       0.8283
40         3      -200.5 +j   -125.9      236.7       0.8469
   TERMINAL TOTAL  -638.4 +j   -413.7      760.7       0.8392

ELEMENT = "Line.L37"
36         1        39.1 +j     19.6       43.8       0.8943
   TERMINAL TOTAL    39.1 +j     19.6       43.8       0.8943
37         1       -39.1 +j    -19.6       43.7       0.8944
   TERMINAL TOTAL   -39.1 +j    -19.6       43.7       0.8944

ELEMENT = "Line.L38"
36         1         0.0 +j     -0.0        0.0      -0.3051
36         2        40.5 +j     20.2       45.3       0.8943
36         3         0.0 +j     -0.0        0.0      -0.1462
   TERMINAL TOTAL    40.5 +j     20.2       45.3       0.8944
38         1        -0.0 +j      0.0        0.0      -0.3052
38         2       -40.5 +j    -20.2       45.2       0.8944
38         3        -0.0 +j      0.0        0.0      -0.1462
   TERMINAL TOTAL   -40.5 +j    -20.2       45.2       0.8945

ELEMENT = "Line.L39"
38         1         0.0 +j     -0.0        0.0      -0.3052
38         2        20.0 +j     10.0       22.4       0.8944
38         3         0.0 +j     -0.0        0.0      -0.1462
   TERMINAL TOTAL    20.0 +j     10.0       22.4       0.8946
39         1        -0.0 +j      0.0        0.0      -0.3052
39         2       -20.0 +j    -10.0       22.4       0.8945
39         3        -0.0 +j      0.0        0.0      -0.1462
   TERMINAL TOTAL   -20.0 +j    -10.0       22.4       0.8945

ELEMENT = "Line.L40"
40         3        20.0 +j     10.0       22.4       0.8944
   TERMINAL TOTAL    20.0 +j     10.0       22.4       0.8944
41         3       -20.0 +j    -10.0       22.4       0.8944
   TERMINAL TOTAL   -20.0 +j    -10.0       22.4       0.8944

ELEMENT = "Line.L41"
40         1       217.6 +j    138.7      258.1       0.8432
40         2       220.4 +j    149.1      266.1       0.8283
40         3       180.5 +j    115.9      214.4       0.8415
   TERMINAL TOTAL   618.4 +j    403.7      738.5       0.8374
42         1      -217.3 +j   -138.4      257.6       0.8435
42         2      -220.3 +j   -148.7      265.8       0.8288
42         3      -180.4 +j   -115.6      214.3       0.8418
   TERMINAL TOTAL  -617.9 +j   -402.7      737.6       0.8378

ELEMENT = "Line.L42"
42         2        41.7 +j     20.9       46.6       0.8942
   TERMINAL TOTAL    41.7 +j     20.9       46.6       0.8942
43         2       -41.6 +j    -20.8       46.6       0.8944
   TERMINAL TOTAL   -41.6 +j    -20.8       46.6       0.8944

ELEMENT = "Line.L43"
42         1       197.3 +j    128.4      235.4       0.8382
42         2       178.6 +j    127.8      219.6       0.8131
42         3       180.4 +j    115.6      214.3       0.8418
   TERMINAL TOTAL   556.2 +j    371.9      669.1       0.8313
44         1      -197.2 +j   -128.1      235.1       0.8385
44         2      -178.5 +j   -127.7      219.5       0.8134
44         3      -180.3 +j   -115.5      214.1       0.8421
   TERMINAL TOTAL  -555.9 +j   -371.3      668.5       0.8316

ELEMENT = "Line.L44"
44         1        39.7 +j     19.9       44.4       0.8943
   TERMINAL TOTAL    39.7 +j     19.9       44.4       0.8943
45         1       -39.7 +j    -19.9       44.4       0.8944
   TERMINAL TOTAL   -39.7 +j    -19.9       44.4       0.8944

ELEMENT = "Line.L45"
44         1       157.4 +j    108.3      191.1       0.8240
44         2       178.5 +j    127.7      219.5       0.8134
44         3       180.3 +j    115.5      214.1       0.8421
   TERMINAL TOTAL   516.2 +j    351.4      624.5       0.8267
47         1      -157.3 +j   -108.1      190.9       0.8242
47         2      -178.4 +j   -127.4      219.2       0.8137
47         3      -180.2 +j   -115.2      213.9       0.8425
   TERMINAL TOTAL  -515.9 +j   -350.7      623.8       0.8270

ELEMENT = "Line.L46"
45         1        20.0 +j     10.0       22.4       0.8944
   TERMINAL TOTAL    20.0 +j     10.0       22.4       0.8944
46         1       -20.0 +j    -10.0       22.4       0.8944
   TERMINAL TOTAL   -20.0 +j    -10.0       22.4       0.8944

ELEMENT = "Line.L47"
47         1        67.8 +j     48.5       83.4       0.8137
47         2        72.7 +j     51.9       89.3       0.8137
47         3        70.1 +j     50.1       86.2       0.8136
   TERMINAL TOTAL   210.6 +j    150.5      258.9       0.8137
48         1       -67.8 +j    -48.4       83.3       0.8137
48         2       -72.7 +j    -51.9       89.3       0.8137
48         3       -70.1 +j    -50.1       86.2       0.8137
   TERMINAL TOTAL  -210.6 +j   -150.4      258.8       0.8137

ELEMENT = "Line.L48"
47         1        55.0 +j     35.0       65.2       0.8436
47         2        70.0 +j     50.0       86.1       0.8137
47         3        75.0 +j     40.1       85.0       0.8822
   TERMINAL TOTAL   200.1 +j    125.1      236.0       0.8479
49         1       -55.0 +j    -35.0       65.2       0.8437
49         2       -70.0 +j    -50.0       86.0       0.8138
49         3       -75.0 +j    -40.0       85.0       0.8823
   TERMINAL TOTAL  -200.0 +j   -125.0      235.9       0.8480

ELEMENT = "Line.L49"
49         1        20.0 +j     10.0       22.4       0.8944
49         2        -0.0 +j     -0.0        0.0       0.3727
49         3        40.0 +j     20.0       44.7       0.8944
   TERMINAL TOTAL    60.0 +j     30.0       67.1       0.8944
50         1       -20.0 +j    -10.0       22.4       0.8944
50         2         0.0 +j      0.0        0.0       0.3725
50         3       -40.0 +j    -20.0       44.7       0.8945
   TERMINAL TOTAL   -60.0 +j    -30.0       67.1       0.8945

ELEMENT = "Line.L50"
50         1        20.0 +j     10.0       22.4       0.8944
50         2        -0.0 +j     -0.0        0.0       0.3725
50         3         0.0 +j     -0.0        0.0      -0.1460
   TERMINAL TOTAL    20.0 +j     10.0       22.4       0.8946
51         1       -20.0 +j    -10.0       22.4       0.8945
51         2         0.0 +j      0.0        0.0       0.3726
51         3        -0.0 +j      0.0        0.0      -0.1461
   TERMINAL TOTAL   -20.0 +j    -10.0       22.4       0.8946

ELEMENT = "Line.L51"
51         1         0.0 +j     -0.0        0.0      -0.3056
51         2        -0.0 +j     -0.0        0.0       0.3726
51         3         0.0 +j     -0.0        0.0      -0.1461
   TERMINAL TOTAL     0.0 +j     -0.0        0.0      -0.0000
151        1        -0.0 +j     -0.0        0.0       1.0000
151        2        -0.0 +j     -0.0        0.0       1.0000
151        3        -0.0 +j      0.0        0.0      -1.0000
   TERMINAL TOTAL    -0.0 +j     -0.0        0.0       1.0000

ELEMENT = "Line.L52"
52         1       738.7 +j    149.0      753.6       0.9803
52         2       600.4 +j     85.0      606.4       0.9901
52         3       639.8 +j     76.1      644.3       0.9930
   TERMINAL TOTAL  1979.0 +j    310.1     2003.1       0.9879
53         1      -737.2 +j   -146.3      751.5       0.9809
53         2      -600.1 +j    -83.7      605.9       0.9904
53         3      -639.0 +j    -74.5      643.3       0.9933
   TERMINAL TOTAL -1976.3 +j   -304.5     1999.6       0.9883

ELEMENT = "Line.L53"
53         1       697.2 +j    126.3      708.5       0.9840
53         2       600.1 +j     83.7      605.9       0.9904
53         3       639.0 +j     74.5      643.3       0.9933
   TERMINAL TOTAL  1936.3 +j    284.5     1957.1       0.9894
54         1      -696.3 +j   -124.8      707.4       0.9843
54         2      -599.9 +j    -82.9      605.6       0.9906
54         3      -638.5 +j    -73.5      642.7       0.9934
   TERMINAL TOTAL -1934.7 +j   -281.2     1955.0       0.9896

ELEMENT = "Line.L54"
54         1        19.7 +j      9.8       22.0       0.8945
54         2        20.0 +j     10.0       22.4       0.8944
54         3         0.0 +j     -0.0        0.0      -0.0688
   TERMINAL TOTAL    39.7 +j     19.8       44.4       0.8945
55         1       -19.7 +j     -9.8       22.0       0.8945
55         2       -20.0 +j    -10.0       22.4       0.8944
55         3        -0.0 +j      0.0        0.0      -0.0689
   TERMINAL TOTAL   -39.7 +j    -19.8       44.4       0.8945

ELEMENT = "Line.L55"
54         1       676.6 +j    115.0      686.3       0.9859
54         2       579.9 +j     72.9      584.5       0.9922
54         3       638.5 +j     73.5      642.7       0.9934
   TERMINAL TOTAL  1895.0 +j    261.4     1912.9       0.9906
57         1      -675.1 +j   -111.1      684.1       0.9867
57         2      -578.6 +j    -70.6      582.9       0.9926
57         3      -637.1 +j    -70.9      641.0       0.9939
   TERMINAL TOTAL -1890.7 +j   -252.6     1907.5       0.9912

ELEMENT = "Line.L56"
55         1        -0.0 +j     -0.0        0.0       0.1497
55         2        20.0 +j     10.0       22.4       0.8944
55         3         0.0 +j     -0.0        0.0      -0.0689
   TERMINAL TOTAL    20.0 +j     10.0       22.4       0.8945
56         1         0.0 +j     -0.0        0.0      -0.9990
56         2       -20.0 +j    -10.0       22.4       0.8944
56         3        -0.0 +j      0.0        0.0      -0.4764
   TERMINAL TOTAL   -20.0 +j    -10.0       22.4       0.8944

ELEMENT = "Line.L57"
57         2        40.5 +j     20.3       45.3       0.8943
   TERMINAL TOTAL    40.5 +j     20.3       45.3       0.8943
58         2       -40.5 +j    -20.2       45.3       0.8944
   TERMINAL TOTAL   -40.5 +j    -20.2       45.3       0.8944

ELEMENT = "Line.L58"
57         1       675.1 +j    111.1      684.1       0.9867
57         2       538.0 +j     50.3      540.4       0.9957
57         3       637.1 +j     70.9      641.0       0.9939
   TERMINAL TOTAL  1850.2 +j    232.4     1864.7       0.9922
60         1      -671.8 +j   -102.4      679.6       0.9886
60         2      -535.7 +j    -46.4      537.8       0.9963
60         3      -633.8 +j    -65.5      637.2       0.9947
   TERMINAL TOTAL -1841.4 +j   -214.3     1853.8       0.9933

ELEMENT = "Line.L59"
58         2        20.0 +j     10.0       22.4       0.8944
   TERMINAL TOTAL    20.0 +j     10.0       22.4       0.8944
59         2       -20.0 +j    -10.0       22.4       0.8944
   TERMINAL TOTAL   -20.0 +j    -10.0       22.4       0.8944

ELEMENT = "Line.L60"
60         1        -0.0 +j     -0.0        0.0       0.0880
60         2         0.0 +j     -0.0        0.0      -0.1397
60         3        -0.0 +j     -0.0        0.0       0.0572
   TERMINAL TOTAL     0.0 +j     -0.0        0.0      -0.0002
61         1        -0.0 +j     -0.0        0.0       0.0306
61         2        -0.0 +j     -0.0        0.0       0.0340
61         3        -0.0 +j     -0.0        0.0       0.0256
   TERMINAL TOTAL    -0.0 +j     -0.0        0.0       0.0301

ELEMENT = "Line.L61"
60         1        84.4 +j     65.4      106.8       0.7906
60         2       112.2 +j     60.9      127.7       0.8788
60         3       174.7 +j     83.4      193.6       0.9023
   TERMINAL TOTAL   371.3 +j    209.8      426.5       0.8707
62         1       -84.4 +j    -65.4      106.7       0.7905
62         2      -112.1 +j    -60.9      127.6       0.8785
62         3      -174.3 +j    -83.2      193.2       0.9024
   TERMINAL TOTAL  -370.7 +j   -209.5      425.9       0.8706

ELEMENT = "Line.L62"
62         1        84.4 +j     65.4      106.7       0.7905
62         2       112.1 +j     60.9      127.6       0.8785
62         3       134.5 +j     63.3      148.7       0.9047
   TERMINAL TOTAL   330.9 +j    189.6      381.4       0.8676
63         1       -84.3 +j    -65.4      106.7       0.7903
63         2      -112.0 +j    -60.9      127.5       0.8784
63         3      -134.4 +j    -63.3      148.5       0.9047
   TERMINAL TOTAL  -330.6 +j   -189.5      381.1       0.8676

ELEMENT = "Line.L63"
63         1        44.3 +j     45.4       63.4       0.6988
63         2       112.0 +j     60.9      127.5       0.8784
63         3       134.4 +j     63.3      148.5       0.9047
   TERMINAL TOTAL   290.6 +j    169.5      336.5       0.8638
64         1       -44.3 +j    -45.4       63.4       0.6983
64         2      -111.7 +j    -60.9      127.2       0.8780
64         3      -134.1 +j    -63.1      148.2       0.9049
   TERMINAL TOTAL  -290.1 +j   -169.4      335.9       0.8636

ELEMENT = "Line.L64"
64         1        44.3 +j     45.4       63.4       0.6980
64         2        35.5 +j     25.4       43.6       0.8135
64         3       134.1 +j     63.1      148.2       0.9048
   TERMINAL TOTAL   213.9 +j    133.9      252.3       0.8476
65         1       -44.3 +j    -45.4       63.4       0.6979
65         2       -35.5 +j    -25.4       43.6       0.8127
65         3      -133.7 +j    -62.9      147.8       0.9048
   TERMINAL TOTAL  -213.4 +j   -133.8      251.9       0.8473

ELEMENT = "Line.L65"
65         1         0.0 +j     -0.0        0.0      -0.0002
65         2        -0.0 +j     -0.0        0.0       0.0002
65         3        75.1 +j     35.0       82.9       0.9063
   TERMINAL TOTAL    75.1 +j     35.0       82.9       0.9065
66         1        -0.0 +j     -0.0        0.0       1.0000
66         2        -0.0 +j      0.0        0.0      -1.0000
66         3       -75.0 +j    -35.0       82.8       0.9062
   TERMINAL TOTAL   -75.0 +j    -35.0       82.8       0.9062

ELEMENT = "Line.L66"
67         1       120.4 +j     60.4      134.7       0.8939
   TERMINAL TOTAL   120.4 +j     60.4      134.7       0.8939
68         1      -120.2 +j    -60.2      134.5       0.8941
   TERMINAL TOTAL  -120.2 +j    -60.2      134.5       0.8941

ELEMENT = "Line.L67"
67         1       263.2 +j   -128.4      292.8      -0.8987
67         2       302.9 +j    -76.1      312.3      -0.9699
67         3       315.5 +j    -90.6      328.3      -0.9612
   TERMINAL TOTAL   881.6 +j   -295.1      929.7      -0.9483
72         1      -263.0 +j    128.9      292.9      -0.8979
72         2      -302.5 +j     76.5      312.1      -0.9695
72         3      -315.3 +j     91.2      328.2      -0.9606
   TERMINAL TOTAL  -880.8 +j    296.7      929.5      -0.9477

ELEMENT = "Line.L68"
67         1       182.9 +j     92.5      204.9       0.8923
67         2       120.2 +j     60.3      134.4       0.8938
67         3       142.6 +j     71.6      159.6       0.8938
   TERMINAL TOTAL   445.7 +j    224.4      499.0       0.8932
97         1      -182.8 +j    -92.3      204.7       0.8927
97         2      -120.1 +j    -60.2      134.4       0.8940
97         3      -142.5 +j    -71.5      159.4       0.8940
   TERMINAL TOTAL  -445.5 +j   -223.9      498.6       0.8935

ELEMENT = "Line.L69"
68         1       100.2 +j     50.2      112.1       0.8940
   TERMINAL TOTAL   100.2 +j     50.2      112.1       0.8940
69         1      -100.1 +j    -50.1      111.9       0.8943
   TERMINAL TOTAL  -100.1 +j    -50.1      111.9       0.8943

ELEMENT = "Line.L70"
69         1        60.1 +j     30.1       67.2       0.8942
   TERMINAL TOTAL    60.1 +j     30.1       67.2       0.8942
70         1       -60.0 +j    -30.0       67.1       0.8944
   TERMINAL TOTAL   -60.0 +j    -30.0       67.1       0.8944

ELEMENT = "Line.L71"
70         1        40.0 +j     20.0       44.8       0.8943
   TERMINAL TOTAL    40.0 +j     20.0       44.8       0.8943
...