project/IEEE123Bus/IEEE123_VLN.Txt

SYMMETRICAL COMPONENT VOLTAGES BY BUS (for 3-phase buses)

Bus     Mag:   V1 (kV)    p.u.     V2 (kV)   %V2/V1    V0 (kV)    %V0/V1

150        2.402          1  1.115E-009  4.641E-008 2.343E-010 9.753E-009
150r       2.402          1  1.095E-009  4.56E-008 2.614E-010 1.088E-008
149        2.402          1  1.096E-009  4.562E-008 2.613E-010 1.088E-008
1          2.402          1  1.403E-007  5.84E-006 1.326E-007 5.52E-006
2          2.402          1          0          0         0         0
3          2.402          1          0          0         0         0
7          2.402          1  2.409E-007  1.003E-005 2.398E-007 9.986E-006
4          2.402          1          0          0         0         0
5          2.402          1          0          0         0         0
6          2.402          1          0          0         0         0
8          2.402          1  3.075E-007  1.28E-005 3.12E-007 1.299E-005
12         2.402          1          0          0         0         0
9          2.402          1          0          0         0         0
13         2.402          1  4.021E-007  1.674E-005 3.966E-007 1.651E-005
9r         2.402          1          0          0         0         0
14         2.402          1          0          0         0         0
34         2.402          1          0          0         0         0
18         2.402          1  3.775E-007  1.572E-005 4.883E-007 2.033E-005
11         2.402          1          0          0         0         0
10         2.402          1          0          0         0         0
15         2.402          1          0          0         0         0
16         2.402          1          0          0         0         0
17         2.402          1          0          0         0         0
19         2.402          1          0          0         0         0
21         2.402          1  3.813E-007  1.587E-005 5.032E-007 2.095E-005
20         2.402          1          0          0         0         0
22         2.402          1          0          0         0         0
23         2.402          1  3.873E-007  1.612E-005 5.222E-007 2.174E-005
24         2.402          1          0          0         0         0
25         2.402          1  3.929E-007  1.636E-005 5.435E-007 2.263E-005
25r        2.402          1          0          0         0         0
26         2.402          1          0          0         0         0
28         2.402          1  3.917E-007  1.631E-005 5.443E-007 2.266E-005
27         2.402          1          0          0         0         0
31         2.402          1          0          0         0         0
33         2.402          1          0          0         0         0
29         2.402          1  3.904E-007  1.625E-005 5.451E-007 2.27E-005
30         2.402          1  3.892E-007  1.621E-005 5.458E-007 2.273E-005
250        2.402          1  3.889E-007  1.619E-005 5.461E-007 2.274E-005
32         2.402          1          0          0         0         0
35         2.402          1  3.845E-007  1.601E-005 4.763E-007 1.983E-005
36         2.402          1          0          0         0         0
40         2.402          1  4.011E-007  1.67E-005 4.826E-007 2.009E-005
37         2.402          1          0          0         0         0
38         2.402          1          0          0         0         0
39         2.402          1          0          0         0         0
41         2.402          1          0          0         0         0
42         2.402          1  4.157E-007  1.731E-005 4.894E-007 2.038E-005
43         2.402          1          0          0         0         0
44         2.402          1  4.285E-007  1.784E-005 4.991E-007 2.078E-005
45         2.402          1          0          0         0         0
47         2.402          1  4.41E-007  1.836E-005 4.988E-007 2.077E-005
46         2.402          1          0          0         0         0
48         2.402          1  4.411E-007  1.837E-005 4.987E-007 2.076E-005
49         2.402          1  4.475E-007  1.863E-005 4.922E-007 2.049E-005
50         2.402          1  4.539E-007  1.89E-005 4.861E-007 2.024E-005
51         2.402          1   4.6E-007  1.915E-005 4.804E-007    2E-005
151        2.402          1  4.718E-007  1.964E-005 4.699E-007 1.956E-005
52         2.402          1  4.656E-007  1.939E-005 4.732E-007 1.97E-005
53         2.402          1  4.968E-007  2.068E-005 5.117E-007 2.131E-005
54         2.402          1  5.16E-007  2.148E-005 5.358E-007 2.231E-005
55         2.402          1  5.171E-007  2.153E-005 5.36E-007 2.232E-005
57         2.402          1  5.003E-007  2.083E-005 4.676E-007 1.947E-005
56         2.402          1  5.175E-007  2.154E-005 5.361E-007 2.232E-005
58         2.402          1          0          0         0         0
60         2.402          1  4.818E-007  2.006E-005 3.672E-007 1.529E-005
59         2.402          1          0          0         0         0
61         2.402          1  4.828E-007  2.01E-005 3.675E-007 1.53E-005
62         2.402          1  4.842E-007  2.016E-005 3.665E-007 1.526E-005
63         2.402          1  4.855E-007  2.021E-005 3.661E-007 1.524E-005
64         2.402          1  4.873E-007  2.029E-005 3.656E-007 1.522E-005
65         2.402          1  4.886E-007  2.034E-005 3.653E-007 1.521E-005
66         2.402          1  4.889E-007  2.036E-005 3.652E-007 1.52E-005
67         2.402          1  4.602E-007  1.916E-005 3.495E-007 1.455E-005
68         2.402          1          0          0         0         0
72         2.402          1  4.501E-007  1.874E-005 3.018E-007 1.257E-005
97         2.402          1  4.621E-007  1.924E-005 3.679E-007 1.532E-005
69         2.402          1          0          0         0         0
70         2.402          1          0          0         0         0
71         2.402          1          0          0         0         0
73         2.402          1          0          0         0         0
76         2.402          1  4.408E-007  1.835E-005 2.756E-007 1.148E-005
74         2.402          1          0          0         0         0
75         2.402          1          0          0         0         0
77         2.402          1  4.369E-007  1.819E-005 2.948E-007 1.227E-005
86         2.402          1  4.123E-007  1.717E-005 2.68E-007 1.116E-005
78         2.402          1  4.363E-007  1.816E-005 2.995E-007 1.247E-005
79         2.402          1  4.36E-007  1.815E-005 2.997E-007 1.248E-005
80         2.402          1  4.358E-007  1.815E-005 3.215E-007 1.339E-005
81         2.402          1  4.362E-007  1.816E-005 3.296E-007 1.372E-005
82         2.402          1  4.351E-007  1.812E-005 3.301E-007 1.374E-005
84         2.402          1          0          0         0         0
83         2.402          1  4.348E-007  1.81E-005 3.303E-007 1.375E-005
85         2.402          1          0          0         0         0
87         2.402          1  4.001E-007  1.666E-005 3.453E-007 1.438E-005
88         2.402          1          0          0         0         0
89         2.402          1  3.959E-007  1.648E-005 4.151E-007 1.728E-005
90         2.402          1          0          0         0         0
91         2.402          1  3.966E-007  1.651E-005 4.768E-007 1.985E-005
92         2.402          1          0          0         0         0
93         2.402          1  3.977E-007  1.656E-005 5.364E-007 2.233E-005
94         2.402          1          0          0         0         0
95         2.402          1  3.941E-007  1.641E-005 5.381E-007 2.241E-005
96         2.402          1          0          0         0         0
98         2.402          1  4.609E-007  1.919E-005 3.668E-007 1.527E-005
99         2.402          1  4.592E-007  1.912E-005 3.649E-007 1.519E-005
100        2.402          1  4.586E-007  1.909E-005 3.642E-007 1.516E-005
450        2.402          1  4.575E-007  1.905E-005 3.631E-007 1.512E-005
197        2.402          1  4.621E-007  1.924E-005 3.679E-007 1.532E-005
101        2.402          1  4.658E-007  1.939E-005 3.889E-007 1.619E-005
102        2.402          1          0          0         0         0
105        2.402          1  4.668E-007  1.943E-005 4.107E-007 1.71E-005
103        2.402          1          0          0         0         0
104        2.402          1          0          0         0         0
106        2.402          1          0          0         0         0
108        2.402          1  4.746E-007  1.976E-005 4.564E-007  1.9E-005
107        2.402          1          0          0         0         0
109        2.402          1          0          0         0         0
300        2.402          1  4.718E-007  1.964E-005 4.699E-007 1.956E-005
110        2.402          1          0          0         0         0
111        2.402          1          0          0         0         0
112        2.402          1          0          0         0         0
113        2.402          1          0          0         0         0
114        2.402          1          0          0         0         0
135        2.402          1  3.775E-007  1.572E-005 4.883E-007 2.033E-005
152        2.402          1  4.021E-007  1.674E-005 3.966E-007 1.651E-005
160r       2.402          1  4.819E-007  2.006E-005 3.671E-007 1.528E-005
160        2.402          1  4.818E-007  2.006E-005 3.672E-007 1.529E-005
61s        2.402          1  4.828E-007  2.01E-005 3.675E-007 1.53E-005
195        2.402          1  3.941E-007  1.641E-005 5.381E-007 2.241E-005
251        2.402          1  3.889E-007  1.619E-005 5.461E-007 2.274E-005
451        2.402          1  4.575E-007  1.905E-005 3.631E-007 1.512E-005
350        2.402          1  4.718E-007  1.964E-005 4.699E-007 1.956E-005
610       0.2771          1  5.571E-008  2.01E-005 9.763E-010 3.523E-007
c83_1          0          0          0          0         0         0
c88a_1         0          0          0          0         0         0
c90b_1         0          0          0          0         0         0
c92c_1         0          0          0          0         0         0
